*SPEF "ieee 1481-1999"
*DESIGN "user_project_wrapper"
*DATE "11:11:11 Fri 11 11, 1111"
*VENDOR "OpenRCX"
*PROGRAM "Parallel Extraction"
*VERSION "1.0"
*DESIGN_FLOW "NAME_SCOPE LOCAL" "PIN_CAP NONE"
*DIVIDER /
*DELIMITER :
*BUS_DELIMITER []
*T_UNIT 1 NS
*C_UNIT 1 PF
*R_UNIT 1 OHM
*L_UNIT 1 HENRY

*NAME_MAP
*1 io_in[0]
*2 io_in[10]
*3 io_in[11]
*4 io_in[12]
*5 io_in[13]
*6 io_in[14]
*7 io_in[15]
*8 io_in[16]
*9 io_in[17]
*10 io_in[18]
*11 io_in[19]
*12 io_in[1]
*13 io_in[20]
*14 io_in[21]
*15 io_in[22]
*16 io_in[23]
*17 io_in[24]
*18 io_in[25]
*19 io_in[26]
*20 io_in[27]
*21 io_in[28]
*22 io_in[29]
*23 io_in[2]
*24 io_in[30]
*25 io_in[31]
*26 io_in[32]
*27 io_in[33]
*28 io_in[34]
*29 io_in[35]
*30 io_in[36]
*31 io_in[37]
*32 io_in[3]
*33 io_in[4]
*34 io_in[5]
*35 io_in[6]
*36 io_in[7]
*37 io_in[8]
*38 io_in[9]
*39 io_oeb[0]
*40 io_oeb[10]
*41 io_oeb[11]
*42 io_oeb[12]
*43 io_oeb[13]
*44 io_oeb[14]
*45 io_oeb[15]
*46 io_oeb[16]
*47 io_oeb[17]
*48 io_oeb[18]
*49 io_oeb[19]
*50 io_oeb[1]
*51 io_oeb[20]
*52 io_oeb[21]
*53 io_oeb[22]
*54 io_oeb[23]
*55 io_oeb[24]
*56 io_oeb[25]
*57 io_oeb[26]
*58 io_oeb[27]
*59 io_oeb[28]
*60 io_oeb[29]
*61 io_oeb[2]
*62 io_oeb[30]
*63 io_oeb[31]
*64 io_oeb[32]
*65 io_oeb[33]
*66 io_oeb[34]
*67 io_oeb[35]
*68 io_oeb[36]
*69 io_oeb[37]
*70 io_oeb[3]
*71 io_oeb[4]
*72 io_oeb[5]
*73 io_oeb[6]
*74 io_oeb[7]
*75 io_oeb[8]
*76 io_oeb[9]
*77 io_out[0]
*78 io_out[10]
*79 io_out[11]
*80 io_out[12]
*81 io_out[13]
*82 io_out[14]
*83 io_out[15]
*84 io_out[16]
*85 io_out[17]
*86 io_out[18]
*87 io_out[19]
*88 io_out[1]
*89 io_out[20]
*90 io_out[21]
*91 io_out[22]
*92 io_out[23]
*93 io_out[24]
*94 io_out[25]
*95 io_out[26]
*96 io_out[27]
*97 io_out[28]
*98 io_out[29]
*99 io_out[2]
*100 io_out[30]
*101 io_out[31]
*102 io_out[32]
*103 io_out[33]
*104 io_out[34]
*105 io_out[35]
*106 io_out[36]
*107 io_out[37]
*108 io_out[3]
*109 io_out[4]
*110 io_out[5]
*111 io_out[6]
*112 io_out[7]
*113 io_out[8]
*114 io_out[9]
*115 la_data_in[0]
*116 la_data_in[10]
*117 la_data_in[11]
*118 la_data_in[12]
*119 la_data_in[13]
*120 la_data_in[14]
*121 la_data_in[15]
*122 la_data_in[16]
*123 la_data_in[17]
*124 la_data_in[18]
*125 la_data_in[19]
*126 la_data_in[1]
*127 la_data_in[20]
*128 la_data_in[21]
*129 la_data_in[22]
*130 la_data_in[23]
*131 la_data_in[24]
*132 la_data_in[25]
*133 la_data_in[26]
*134 la_data_in[27]
*135 la_data_in[28]
*136 la_data_in[29]
*137 la_data_in[2]
*138 la_data_in[30]
*139 la_data_in[31]
*140 la_data_in[32]
*141 la_data_in[33]
*142 la_data_in[34]
*143 la_data_in[35]
*144 la_data_in[36]
*145 la_data_in[37]
*146 la_data_in[38]
*147 la_data_in[39]
*148 la_data_in[3]
*149 la_data_in[40]
*150 la_data_in[41]
*151 la_data_in[42]
*152 la_data_in[43]
*153 la_data_in[44]
*154 la_data_in[45]
*155 la_data_in[46]
*156 la_data_in[47]
*157 la_data_in[48]
*158 la_data_in[49]
*159 la_data_in[4]
*160 la_data_in[50]
*161 la_data_in[51]
*162 la_data_in[52]
*163 la_data_in[53]
*164 la_data_in[54]
*165 la_data_in[55]
*166 la_data_in[56]
*167 la_data_in[57]
*168 la_data_in[58]
*169 la_data_in[59]
*170 la_data_in[5]
*171 la_data_in[60]
*172 la_data_in[61]
*173 la_data_in[62]
*174 la_data_in[63]
*175 la_data_in[6]
*176 la_data_in[7]
*177 la_data_in[8]
*178 la_data_in[9]
*179 la_data_out[0]
*180 la_data_out[10]
*181 la_data_out[11]
*182 la_data_out[12]
*183 la_data_out[13]
*184 la_data_out[14]
*185 la_data_out[15]
*186 la_data_out[16]
*187 la_data_out[17]
*188 la_data_out[18]
*189 la_data_out[19]
*190 la_data_out[1]
*191 la_data_out[20]
*192 la_data_out[21]
*193 la_data_out[22]
*194 la_data_out[23]
*195 la_data_out[24]
*196 la_data_out[25]
*197 la_data_out[26]
*198 la_data_out[27]
*199 la_data_out[28]
*200 la_data_out[29]
*201 la_data_out[2]
*202 la_data_out[30]
*203 la_data_out[31]
*204 la_data_out[32]
*205 la_data_out[33]
*206 la_data_out[34]
*207 la_data_out[35]
*208 la_data_out[36]
*209 la_data_out[37]
*210 la_data_out[38]
*211 la_data_out[39]
*212 la_data_out[3]
*213 la_data_out[40]
*214 la_data_out[41]
*215 la_data_out[42]
*216 la_data_out[43]
*217 la_data_out[44]
*218 la_data_out[45]
*219 la_data_out[46]
*220 la_data_out[47]
*221 la_data_out[48]
*222 la_data_out[49]
*223 la_data_out[4]
*224 la_data_out[50]
*225 la_data_out[51]
*226 la_data_out[52]
*227 la_data_out[53]
*228 la_data_out[54]
*229 la_data_out[55]
*230 la_data_out[56]
*231 la_data_out[57]
*232 la_data_out[58]
*233 la_data_out[59]
*234 la_data_out[5]
*235 la_data_out[60]
*236 la_data_out[61]
*237 la_data_out[62]
*238 la_data_out[63]
*239 la_data_out[6]
*240 la_data_out[7]
*241 la_data_out[8]
*242 la_data_out[9]
*243 la_oenb[0]
*244 la_oenb[10]
*245 la_oenb[11]
*246 la_oenb[12]
*247 la_oenb[13]
*248 la_oenb[14]
*249 la_oenb[15]
*250 la_oenb[16]
*251 la_oenb[17]
*252 la_oenb[18]
*253 la_oenb[19]
*254 la_oenb[1]
*255 la_oenb[20]
*256 la_oenb[21]
*257 la_oenb[22]
*258 la_oenb[23]
*259 la_oenb[24]
*260 la_oenb[25]
*261 la_oenb[26]
*262 la_oenb[27]
*263 la_oenb[28]
*264 la_oenb[29]
*265 la_oenb[2]
*266 la_oenb[30]
*267 la_oenb[31]
*268 la_oenb[32]
*269 la_oenb[33]
*270 la_oenb[34]
*271 la_oenb[35]
*272 la_oenb[36]
*273 la_oenb[37]
*274 la_oenb[38]
*275 la_oenb[39]
*276 la_oenb[3]
*277 la_oenb[40]
*278 la_oenb[41]
*279 la_oenb[42]
*280 la_oenb[43]
*281 la_oenb[44]
*282 la_oenb[45]
*283 la_oenb[46]
*284 la_oenb[47]
*285 la_oenb[48]
*286 la_oenb[49]
*287 la_oenb[4]
*288 la_oenb[50]
*289 la_oenb[51]
*290 la_oenb[52]
*291 la_oenb[53]
*292 la_oenb[54]
*293 la_oenb[55]
*294 la_oenb[56]
*295 la_oenb[57]
*296 la_oenb[58]
*297 la_oenb[59]
*298 la_oenb[5]
*299 la_oenb[60]
*300 la_oenb[61]
*301 la_oenb[62]
*302 la_oenb[63]
*303 la_oenb[6]
*304 la_oenb[7]
*305 la_oenb[8]
*306 la_oenb[9]
*307 user_clock2
*308 user_irq[0]
*309 user_irq[1]
*310 user_irq[2]
*313 wb_clk_i
*314 wb_rst_i
*315 wbs_ack_o
*316 wbs_adr_i[0]
*317 wbs_adr_i[10]
*318 wbs_adr_i[11]
*319 wbs_adr_i[12]
*320 wbs_adr_i[13]
*321 wbs_adr_i[14]
*322 wbs_adr_i[15]
*323 wbs_adr_i[16]
*324 wbs_adr_i[17]
*325 wbs_adr_i[18]
*326 wbs_adr_i[19]
*327 wbs_adr_i[1]
*328 wbs_adr_i[20]
*329 wbs_adr_i[21]
*330 wbs_adr_i[22]
*331 wbs_adr_i[23]
*332 wbs_adr_i[24]
*333 wbs_adr_i[25]
*334 wbs_adr_i[26]
*335 wbs_adr_i[27]
*336 wbs_adr_i[28]
*337 wbs_adr_i[29]
*338 wbs_adr_i[2]
*339 wbs_adr_i[30]
*340 wbs_adr_i[31]
*341 wbs_adr_i[3]
*342 wbs_adr_i[4]
*343 wbs_adr_i[5]
*344 wbs_adr_i[6]
*345 wbs_adr_i[7]
*346 wbs_adr_i[8]
*347 wbs_adr_i[9]
*348 wbs_cyc_i
*349 wbs_dat_i[0]
*350 wbs_dat_i[10]
*351 wbs_dat_i[11]
*352 wbs_dat_i[12]
*353 wbs_dat_i[13]
*354 wbs_dat_i[14]
*355 wbs_dat_i[15]
*356 wbs_dat_i[16]
*357 wbs_dat_i[17]
*358 wbs_dat_i[18]
*359 wbs_dat_i[19]
*360 wbs_dat_i[1]
*361 wbs_dat_i[20]
*362 wbs_dat_i[21]
*363 wbs_dat_i[22]
*364 wbs_dat_i[23]
*365 wbs_dat_i[24]
*366 wbs_dat_i[25]
*367 wbs_dat_i[26]
*368 wbs_dat_i[27]
*369 wbs_dat_i[28]
*370 wbs_dat_i[29]
*371 wbs_dat_i[2]
*372 wbs_dat_i[30]
*373 wbs_dat_i[31]
*374 wbs_dat_i[3]
*375 wbs_dat_i[4]
*376 wbs_dat_i[5]
*377 wbs_dat_i[6]
*378 wbs_dat_i[7]
*379 wbs_dat_i[8]
*380 wbs_dat_i[9]
*381 wbs_dat_o[0]
*382 wbs_dat_o[10]
*383 wbs_dat_o[11]
*384 wbs_dat_o[12]
*385 wbs_dat_o[13]
*386 wbs_dat_o[14]
*387 wbs_dat_o[15]
*388 wbs_dat_o[16]
*389 wbs_dat_o[17]
*390 wbs_dat_o[18]
*391 wbs_dat_o[19]
*392 wbs_dat_o[1]
*393 wbs_dat_o[20]
*394 wbs_dat_o[21]
*395 wbs_dat_o[22]
*396 wbs_dat_o[23]
*397 wbs_dat_o[24]
*398 wbs_dat_o[25]
*399 wbs_dat_o[26]
*400 wbs_dat_o[27]
*401 wbs_dat_o[28]
*402 wbs_dat_o[29]
*403 wbs_dat_o[2]
*404 wbs_dat_o[30]
*405 wbs_dat_o[31]
*406 wbs_dat_o[3]
*407 wbs_dat_o[4]
*408 wbs_dat_o[5]
*409 wbs_dat_o[6]
*410 wbs_dat_o[7]
*411 wbs_dat_o[8]
*412 wbs_dat_o[9]
*413 wbs_sel_i[0]
*414 wbs_sel_i[1]
*415 wbs_sel_i[2]
*416 wbs_sel_i[3]
*417 wbs_stb_i
*418 wbs_we_i
*419 mprj

*PORTS
io_in[0] I
io_in[10] I
io_in[11] I
io_in[12] I
io_in[13] I
io_in[14] I
io_in[15] I
io_in[16] I
io_in[17] I
io_in[18] I
io_in[19] I
io_in[1] I
io_in[20] I
io_in[21] I
io_in[22] I
io_in[23] I
io_in[24] I
io_in[25] I
io_in[26] I
io_in[27] I
io_in[28] I
io_in[29] I
io_in[2] I
io_in[30] I
io_in[31] I
io_in[32] I
io_in[33] I
io_in[34] I
io_in[35] I
io_in[36] I
io_in[37] I
io_in[3] I
io_in[4] I
io_in[5] I
io_in[6] I
io_in[7] I
io_in[8] I
io_in[9] I
io_oeb[0] O
io_oeb[10] O
io_oeb[11] O
io_oeb[12] O
io_oeb[13] O
io_oeb[14] O
io_oeb[15] O
io_oeb[16] O
io_oeb[17] O
io_oeb[18] O
io_oeb[19] O
io_oeb[1] O
io_oeb[20] O
io_oeb[21] O
io_oeb[22] O
io_oeb[23] O
io_oeb[24] O
io_oeb[25] O
io_oeb[26] O
io_oeb[27] O
io_oeb[28] O
io_oeb[29] O
io_oeb[2] O
io_oeb[30] O
io_oeb[31] O
io_oeb[32] O
io_oeb[33] O
io_oeb[34] O
io_oeb[35] O
io_oeb[36] O
io_oeb[37] O
io_oeb[3] O
io_oeb[4] O
io_oeb[5] O
io_oeb[6] O
io_oeb[7] O
io_oeb[8] O
io_oeb[9] O
io_out[0] O
io_out[10] O
io_out[11] O
io_out[12] O
io_out[13] O
io_out[14] O
io_out[15] O
io_out[16] O
io_out[17] O
io_out[18] O
io_out[19] O
io_out[1] O
io_out[20] O
io_out[21] O
io_out[22] O
io_out[23] O
io_out[24] O
io_out[25] O
io_out[26] O
io_out[27] O
io_out[28] O
io_out[29] O
io_out[2] O
io_out[30] O
io_out[31] O
io_out[32] O
io_out[33] O
io_out[34] O
io_out[35] O
io_out[36] O
io_out[37] O
io_out[3] O
io_out[4] O
io_out[5] O
io_out[6] O
io_out[7] O
io_out[8] O
io_out[9] O
la_data_in[0] I
la_data_in[10] I
la_data_in[11] I
la_data_in[12] I
la_data_in[13] I
la_data_in[14] I
la_data_in[15] I
la_data_in[16] I
la_data_in[17] I
la_data_in[18] I
la_data_in[19] I
la_data_in[1] I
la_data_in[20] I
la_data_in[21] I
la_data_in[22] I
la_data_in[23] I
la_data_in[24] I
la_data_in[25] I
la_data_in[26] I
la_data_in[27] I
la_data_in[28] I
la_data_in[29] I
la_data_in[2] I
la_data_in[30] I
la_data_in[31] I
la_data_in[32] I
la_data_in[33] I
la_data_in[34] I
la_data_in[35] I
la_data_in[36] I
la_data_in[37] I
la_data_in[38] I
la_data_in[39] I
la_data_in[3] I
la_data_in[40] I
la_data_in[41] I
la_data_in[42] I
la_data_in[43] I
la_data_in[44] I
la_data_in[45] I
la_data_in[46] I
la_data_in[47] I
la_data_in[48] I
la_data_in[49] I
la_data_in[4] I
la_data_in[50] I
la_data_in[51] I
la_data_in[52] I
la_data_in[53] I
la_data_in[54] I
la_data_in[55] I
la_data_in[56] I
la_data_in[57] I
la_data_in[58] I
la_data_in[59] I
la_data_in[5] I
la_data_in[60] I
la_data_in[61] I
la_data_in[62] I
la_data_in[63] I
la_data_in[6] I
la_data_in[7] I
la_data_in[8] I
la_data_in[9] I
la_data_out[0] O
la_data_out[10] O
la_data_out[11] O
la_data_out[12] O
la_data_out[13] O
la_data_out[14] O
la_data_out[15] O
la_data_out[16] O
la_data_out[17] O
la_data_out[18] O
la_data_out[19] O
la_data_out[1] O
la_data_out[20] O
la_data_out[21] O
la_data_out[22] O
la_data_out[23] O
la_data_out[24] O
la_data_out[25] O
la_data_out[26] O
la_data_out[27] O
la_data_out[28] O
la_data_out[29] O
la_data_out[2] O
la_data_out[30] O
la_data_out[31] O
la_data_out[32] O
la_data_out[33] O
la_data_out[34] O
la_data_out[35] O
la_data_out[36] O
la_data_out[37] O
la_data_out[38] O
la_data_out[39] O
la_data_out[3] O
la_data_out[40] O
la_data_out[41] O
la_data_out[42] O
la_data_out[43] O
la_data_out[44] O
la_data_out[45] O
la_data_out[46] O
la_data_out[47] O
la_data_out[48] O
la_data_out[49] O
la_data_out[4] O
la_data_out[50] O
la_data_out[51] O
la_data_out[52] O
la_data_out[53] O
la_data_out[54] O
la_data_out[55] O
la_data_out[56] O
la_data_out[57] O
la_data_out[58] O
la_data_out[59] O
la_data_out[5] O
la_data_out[60] O
la_data_out[61] O
la_data_out[62] O
la_data_out[63] O
la_data_out[6] O
la_data_out[7] O
la_data_out[8] O
la_data_out[9] O
la_oenb[0] I
la_oenb[10] I
la_oenb[11] I
la_oenb[12] I
la_oenb[13] I
la_oenb[14] I
la_oenb[15] I
la_oenb[16] I
la_oenb[17] I
la_oenb[18] I
la_oenb[19] I
la_oenb[1] I
la_oenb[20] I
la_oenb[21] I
la_oenb[22] I
la_oenb[23] I
la_oenb[24] I
la_oenb[25] I
la_oenb[26] I
la_oenb[27] I
la_oenb[28] I
la_oenb[29] I
la_oenb[2] I
la_oenb[30] I
la_oenb[31] I
la_oenb[32] I
la_oenb[33] I
la_oenb[34] I
la_oenb[35] I
la_oenb[36] I
la_oenb[37] I
la_oenb[38] I
la_oenb[39] I
la_oenb[3] I
la_oenb[40] I
la_oenb[41] I
la_oenb[42] I
la_oenb[43] I
la_oenb[44] I
la_oenb[45] I
la_oenb[46] I
la_oenb[47] I
la_oenb[48] I
la_oenb[49] I
la_oenb[4] I
la_oenb[50] I
la_oenb[51] I
la_oenb[52] I
la_oenb[53] I
la_oenb[54] I
la_oenb[55] I
la_oenb[56] I
la_oenb[57] I
la_oenb[58] I
la_oenb[59] I
la_oenb[5] I
la_oenb[60] I
la_oenb[61] I
la_oenb[62] I
la_oenb[63] I
la_oenb[6] I
la_oenb[7] I
la_oenb[8] I
la_oenb[9] I
user_clock2 I
user_irq[0] O
user_irq[1] O
user_irq[2] O
wb_clk_i I
wb_rst_i I
wbs_ack_o O
wbs_adr_i[0] I
wbs_adr_i[10] I
wbs_adr_i[11] I
wbs_adr_i[12] I
wbs_adr_i[13] I
wbs_adr_i[14] I
wbs_adr_i[15] I
wbs_adr_i[16] I
wbs_adr_i[17] I
wbs_adr_i[18] I
wbs_adr_i[19] I
wbs_adr_i[1] I
wbs_adr_i[20] I
wbs_adr_i[21] I
wbs_adr_i[22] I
wbs_adr_i[23] I
wbs_adr_i[24] I
wbs_adr_i[25] I
wbs_adr_i[26] I
wbs_adr_i[27] I
wbs_adr_i[28] I
wbs_adr_i[29] I
wbs_adr_i[2] I
wbs_adr_i[30] I
wbs_adr_i[31] I
wbs_adr_i[3] I
wbs_adr_i[4] I
wbs_adr_i[5] I
wbs_adr_i[6] I
wbs_adr_i[7] I
wbs_adr_i[8] I
wbs_adr_i[9] I
wbs_cyc_i I
wbs_dat_i[0] I
wbs_dat_i[10] I
wbs_dat_i[11] I
wbs_dat_i[12] I
wbs_dat_i[13] I
wbs_dat_i[14] I
wbs_dat_i[15] I
wbs_dat_i[16] I
wbs_dat_i[17] I
wbs_dat_i[18] I
wbs_dat_i[19] I
wbs_dat_i[1] I
wbs_dat_i[20] I
wbs_dat_i[21] I
wbs_dat_i[22] I
wbs_dat_i[23] I
wbs_dat_i[24] I
wbs_dat_i[25] I
wbs_dat_i[26] I
wbs_dat_i[27] I
wbs_dat_i[28] I
wbs_dat_i[29] I
wbs_dat_i[2] I
wbs_dat_i[30] I
wbs_dat_i[31] I
wbs_dat_i[3] I
wbs_dat_i[4] I
wbs_dat_i[5] I
wbs_dat_i[6] I
wbs_dat_i[7] I
wbs_dat_i[8] I
wbs_dat_i[9] I
wbs_dat_o[0] O
wbs_dat_o[10] O
wbs_dat_o[11] O
wbs_dat_o[12] O
wbs_dat_o[13] O
wbs_dat_o[14] O
wbs_dat_o[15] O
wbs_dat_o[16] O
wbs_dat_o[17] O
wbs_dat_o[18] O
wbs_dat_o[19] O
wbs_dat_o[1] O
wbs_dat_o[20] O
wbs_dat_o[21] O
wbs_dat_o[22] O
wbs_dat_o[23] O
wbs_dat_o[24] O
wbs_dat_o[25] O
wbs_dat_o[26] O
wbs_dat_o[27] O
wbs_dat_o[28] O
wbs_dat_o[29] O
wbs_dat_o[2] O
wbs_dat_o[30] O
wbs_dat_o[31] O
wbs_dat_o[3] O
wbs_dat_o[4] O
wbs_dat_o[5] O
wbs_dat_o[6] O
wbs_dat_o[7] O
wbs_dat_o[8] O
wbs_dat_o[9] O
wbs_sel_i[0] I
wbs_sel_i[1] I
wbs_sel_i[2] I
wbs_sel_i[3] I
wbs_stb_i I
wbs_we_i I

*D_NET *2 0.206948
*CONN
*P io_in[10] I
*I *419:io_in[1] I *D user_proj_example
*CAP
1 io_in[10] 0.000961214
2 *419:io_in[1] 0.0379981
3 *2:11 0.0379981
4 *2:9 0.0165376
5 *2:7 0.0174988
6 *2:9 *38:9 0
7 *2:9 *78:9 0.0959546
*RES
1 io_in[10] *2:7 11.565 
2 *2:7 *2:9 251.73 
3 *2:9 *2:11 4.5 
4 *2:11 *419:io_in[1] 304.425 
*END

*D_NET *3 0.286443
*CONN
*P io_in[11] I
*I *419:io_in[2] I *D user_proj_example
*CAP
1 io_in[11] 0.00102595
2 *419:io_in[2] 0.0379333
3 *3:11 0.0379333
4 *3:9 0.00278387
5 *3:7 0.00380982
6 *3:9 *38:9 0.00215058
7 *3:9 *40:9 0.101837
8 *3:9 *41:9 0.0989687
*RES
1 io_in[11] *3:7 12.105 
2 *3:7 *3:9 273.33 
3 *3:9 *3:11 4.5 
4 *3:11 *419:io_in[2] 303.885 
*END

*D_NET *4 0.320749
*CONN
*P io_in[12] I
*I *419:io_in[3] I *D user_proj_example
*CAP
1 io_in[12] 0.00107605
2 *419:io_in[3] 0.0379071
3 *4:11 0.0379071
4 *4:9 0.00217994
5 *4:7 0.00325599
6 *4:9 *5:9 0.0125844
7 *4:9 *38:9 0.00190614
8 *4:9 *41:9 0.110567
9 *4:9 *80:9 0.113365
*RES
1 io_in[12] *4:7 12.465 
2 *4:7 *4:9 294.93 
3 *4:9 *4:11 4.5 
4 *4:11 *419:io_in[3] 303.525 
*END

*D_NET *5 0.248931
*CONN
*P io_in[13] I
*I *419:io_in[4] I *D user_proj_example
*CAP
1 io_in[13] 0.00106929
2 *419:io_in[4] 0.0379479
3 *5:11 0.0379479
4 *5:9 0.0224511
5 *5:7 0.0235204
6 *5:9 *43:9 0.11341
7 *4:9 *5:9 0.0125844
*RES
1 io_in[13] *5:7 12.465 
2 *5:7 *5:9 316.53 
3 *5:9 *5:11 4.5 
4 *5:11 *419:io_in[4] 303.525 
*END

*D_NET *6 0.291283
*CONN
*P io_in[14] I
*I *419:io_in[5] I *D user_proj_example
*CAP
1 io_in[14] 0.00134599
2 *419:io_in[5] 0.0472496
3 *6:11 0.0472496
4 *6:9 0.0234026
5 *6:7 0.0247486
6 *6:9 *42:9 0.022687
7 *6:9 *43:9 0.1246
*RES
1 io_in[14] *6:7 12.825 
2 *6:7 *6:9 338.13 
3 *6:9 *6:11 4.5 
4 *6:11 *419:io_in[5] 303.165 
*END

*D_NET *7 0.23091
*CONN
*P io_in[15] I
*I *419:io_in[6] I *D user_proj_example
*CAP
1 io_in[15] 0.0451997
2 *419:io_in[6] 0.000776492
3 *7:9 0.0241776
4 *7:7 0.0234011
5 *7:5 0.0451997
6 *7:9 *45:9 0.0921556
*RES
1 io_in[15] *7:5 348.525 
2 *7:5 *7:7 4.5 
3 *7:7 *7:9 300.51 
4 *7:9 *419:io_in[6] 10.485 
*END

*D_NET *8 0.256098
*CONN
*P io_in[16] I
*I *419:io_in[7] I *D user_proj_example
*CAP
1 io_in[16] 0.0451697
2 *419:io_in[7] 0.000838422
3 *8:9 0.00576821
4 *8:7 0.00492979
5 *8:5 0.0451697
6 *8:9 *10:9 0.002245
7 *8:9 *45:9 0.087828
8 *8:9 *46:9 0.0641494
*RES
1 io_in[16] *8:5 348.165 
2 *8:5 *8:7 4.5 
3 *8:7 *8:9 230.85 
4 *8:9 *419:io_in[7] 10.845 
*END

*D_NET *9 0.199311
*CONN
*P io_in[17] I
*I *419:io_in[8] I *D user_proj_example
*CAP
1 io_in[17] 0.0451397
2 *419:io_in[8] 0.000884409
3 *9:9 0.00589456
4 *9:7 0.00501015
5 *9:5 0.0451397
6 *9:9 *10:9 0.00113835
7 *9:9 *46:9 0.0597742
8 *9:9 *47:9 0.0363304
*RES
1 io_in[17] *9:5 347.805 
2 *9:5 *9:7 4.5 
3 *9:7 *9:9 161.19 
4 *9:9 *419:io_in[8] 11.205 
*END

*D_NET *10 0.118801
*CONN
*P io_in[18] I
*I *419:io_in[9] I *D user_proj_example
*CAP
1 io_in[18] 0.0452317
2 *419:io_in[9] 0.000776492
3 *10:9 0.00889704
4 *10:7 0.00812054
5 *10:5 0.0452317
6 *10:9 *45:9 0.00235327
7 *10:9 *46:9 0.003091
8 *10:9 *47:9 0.00171582
9 *8:9 *10:9 0.002245
10 *9:9 *10:9 0.00113835
*RES
1 io_in[18] *10:5 348.525 
2 *10:5 *10:7 4.5 
3 *10:7 *10:9 91.53 
4 *10:9 *419:io_in[9] 10.485 
*END

*D_NET *11 0.099691
*CONN
*P io_in[19] I
*I *419:io_in[10] I *D user_proj_example
*CAP
1 io_in[19] 0.00344512
2 *419:io_in[10] 0.0448211
3 *11:11 0.0482663
4 *11:11 *48:17 0.00315845
*RES
1 io_in[19] *11:11 39.195 
2 *11:11 *419:io_in[10] 346.185 
*END

*D_NET *13 0.109195
*CONN
*P io_in[20] I
*I *419:io_in[11] I *D user_proj_example
*CAP
1 io_in[20] 0.00425149
2 *419:io_in[11] 0.0024394
3 *13:13 0.0465354
4 *13:11 0.0483475
5 *419:io_in[11] *49:11 0.00351899
6 *419:io_in[11] *89:9 0.00410244
*RES
1 io_in[20] *13:11 42.615 
2 *13:11 *13:13 340.29 
3 *13:13 *419:io_in[11] 37.395 
*END

*D_NET *14 0.150985
*CONN
*P io_in[21] I
*I *419:io_in[12] I *D user_proj_example
*CAP
1 io_in[21] 0.0452707
2 *419:io_in[12] 0.000753498
3 *14:9 0.00847609
4 *14:7 0.00772259
5 *14:5 0.0452707
6 *14:9 *16:9 0.00045716
7 *14:9 *51:9 0.0328891
8 *14:9 *54:9 0.0078264
9 *14:9 *92:9 0.00231851
*RES
1 io_in[21] *14:5 348.705 
2 *14:5 *14:7 4.5 
3 *14:7 *14:9 117.63 
4 *14:9 *419:io_in[12] 10.305 
*END

*D_NET *15 0.230144
*CONN
*P io_in[22] I
*I *419:io_in[13] I *D user_proj_example
*CAP
1 io_in[22] 0.0450051
2 *419:io_in[13] 0.00093932
3 *15:9 0.00389722
4 *15:7 0.0029579
5 *15:5 0.0450051
6 *15:9 *51:9 0.0001692
7 *15:9 *52:9 0.0609982
8 *15:9 *89:9 0.000923501
9 *15:9 *91:9 0.0702483
*RES
1 io_in[22] *15:5 347.625 
2 *15:5 *15:7 4.5 
3 *15:7 *15:9 187.29 
4 *15:9 *419:io_in[13] 11.385 
*END

*D_NET *16 0.28694
*CONN
*P io_in[23] I
*I *419:io_in[14] I *D user_proj_example
*CAP
1 io_in[23] 0.045074
2 *419:io_in[14] 0.000854381
3 *16:9 0.00368663
4 *16:7 0.00283225
5 *16:5 0.045074
6 *16:9 *51:9 0.00164534
7 *16:9 *53:9 0.0889906
8 *16:9 *92:9 0.0983252
9 *14:9 *16:9 0.00045716
*RES
1 io_in[23] *16:5 348.165 
2 *16:5 *16:7 4.5 
3 *16:7 *16:9 256.95 
4 *16:9 *419:io_in[14] 10.845 
*END

*D_NET *17 0.28613
*CONN
*P io_in[24] I
*I *419:io_in[15] I *D user_proj_example
*CAP
1 io_in[24] 0.000687049
2 *419:io_in[15] 0.0383511
3 *17:19 0.0383511
4 *17:17 0.0106697
5 *17:15 0.0109378
6 *17:9 0.00631052
7 *17:7 0.00672946
8 *17:9 *18:9 0.0549101
9 *17:9 *93:17 0.0732193
10 *17:15 *20:7 0.000342671
11 *17:17 *93:9 0.0456209
*RES
1 io_in[24] *17:7 10.125 
2 *17:7 *17:9 204.03 
3 *17:9 *17:15 10.89 
4 *17:15 *17:17 140.13 
5 *17:17 *17:19 4.5 
6 *17:19 *419:io_in[15] 306.945 
*END

*D_NET *18 0.280056
*CONN
*P io_in[25] I
*I *419:io_in[16] I *D user_proj_example
*CAP
1 io_in[25] 0.00066547
2 *419:io_in[16] 0.0384432
3 *18:19 0.0384432
4 *18:17 0.00177517
5 *18:15 0.00204628
6 *18:9 0.00424992
7 *18:7 0.00464428
8 *419:io_in[16] io_out[29] 3.53051e-05
9 *18:9 *19:9 0.0551336
10 *18:9 *56:17 0.00426534
11 *18:9 *93:17 0.00457192
12 *18:9 *95:17 0.00574052
13 *18:15 *21:7 7.24036e-05
14 *18:17 *55:9 0.0328747
15 *18:17 *58:9 0.00491673
16 *18:17 *94:9 0.0272676
17 *17:9 *18:9 0.0549101
*RES
1 io_in[25] *18:7 9.945 
2 *18:7 *18:9 204.75 
3 *18:9 *18:15 10.53 
4 *18:15 *18:17 89.73 
5 *18:17 *18:19 4.5 
6 *18:19 *419:io_in[16] 307.485 
*END

*D_NET *19 0.245177
*CONN
*P io_in[26] I
*I *419:io_in[17] I *D user_proj_example
*CAP
1 io_in[26] 0.000660817
2 *419:io_in[17] 0.0385981
3 *19:19 0.0385981
4 *19:17 0.00304534
5 *19:9 0.00518587
6 *19:7 0.00280135
7 *19:9 *56:17 0.0732208
8 *19:9 *57:15 0.00453478
9 *19:9 *95:17 0.00649957
10 *19:17 *22:7 0
11 *19:17 *56:9 0.0130406
12 *19:17 *59:9 0.00348158
13 *19:17 *95:15 0.000376437
14 *18:9 *19:9 0.0551336
*RES
1 io_in[26] *19:7 9.765 
2 *19:7 *19:9 205.47 
3 *19:9 *19:17 49.5 
4 *19:17 *19:19 4.5 
5 *19:19 *419:io_in[17] 308.025 
*END

*D_NET *20 0.229931
*CONN
*P io_in[27] I
*I *419:io_in[18] I *D user_proj_example
*CAP
1 io_in[27] 0.0010093
2 *419:io_in[18] 0.0385435
3 *20:11 0.0385435
4 *20:9 0.00202592
5 *20:7 0.00303522
6 *20:9 *21:9 0.00466629
7 *20:9 *56:9 0.00356255
8 *20:9 *59:9 0.032879
9 *20:9 *94:17 0.0358614
10 *20:9 *96:9 0.0694613
11 *17:15 *20:7 0.000342671
*RES
1 io_in[27] *20:7 11.025 
2 *20:7 *20:9 195.03 
3 *20:9 *20:11 4.5 
4 *20:11 *419:io_in[18] 307.845 
*END

*D_NET *21 0.185711
*CONN
*P io_in[28] I
*I *419:io_in[19] I *D user_proj_example
*CAP
1 io_in[28] 0.000968718
2 *419:io_in[19] 0.0385866
3 *21:11 0.0385866
4 *21:9 0.00181948
5 *21:7 0.0027882
6 *21:9 *57:15 0
7 *21:9 *59:9 0.0402391
8 *21:9 *60:9 0.0128316
9 *21:9 *94:17 0.00847123
10 *21:9 *95:17 0.0366806
11 *18:15 *21:7 7.24036e-05
12 *20:9 *21:9 0.00466629
*RES
1 io_in[28] *21:7 10.665 
2 *21:7 *21:9 145.35 
3 *21:9 *21:11 4.5 
4 *21:11 *419:io_in[19] 308.205 
*END

*D_NET *22 0.167846
*CONN
*P io_in[29] I
*I *419:io_in[20] I *D user_proj_example
*CAP
1 io_in[29] 0.00108103
2 *419:io_in[20] 0.0478688
3 *22:11 0.0478688
4 *22:9 0.0021069
5 *22:7 0.00318793
6 *22:9 *24:9 0.00115047
7 *22:9 *55:9 0.000210851
8 *22:9 *93:9 0.000168001
9 *22:9 *95:15 0.00130354
10 *22:9 *97:9 0.0335402
11 *22:9 *98:9 0.0293593
12 *19:17 *22:7 0
*RES
1 io_in[29] *22:7 11.745 
2 *22:7 *22:9 95.67 
3 *22:9 *22:11 4.5 
4 *22:11 *419:io_in[20] 307.125 
*END

*D_NET *24 0.098816
*CONN
*P io_in[30] I
*I *419:io_in[21] I *D user_proj_example
*CAP
1 io_in[30] 0.000845726
2 *419:io_in[21] 0.0384334
3 *24:11 0.0384334
4 *24:9 0.00153076
5 *24:7 0.00237649
6 *419:io_in[21] io_oeb[30] 0.00010949
7 *24:9 io_oeb[30] 3.84216e-05
8 *24:9 io_out[30] 0.00436821
9 *24:9 *58:9 0.000605837
10 *24:9 *59:9 0.00870213
11 *24:9 *60:9 0.000156831
12 *24:9 *97:9 0.00158698
13 *24:9 *98:9 0.000477938
14 *22:9 *24:9 0.00115047
*RES
1 io_in[30] *24:7 11.025 
2 *24:7 *24:9 45.99 
3 *24:9 *24:11 4.5 
4 *24:11 *419:io_in[21] 307.845 
*END

*D_NET *25 0.0795784
*CONN
*P io_in[31] I
*I *419:io_in[22] I *D user_proj_example
*CAP
1 io_in[31] 0.00143827
2 *419:io_in[22] 0.0383509
3 *25:11 0.0397892
*RES
1 io_in[31] *25:11 19.935 
2 *25:11 *419:io_in[22] 306.945 
*END

*D_NET *26 0.103905
*CONN
*P io_in[32] I
*I *419:io_in[23] I *D user_proj_example
*CAP
1 io_in[32] 0.0385113
2 *419:io_in[23] 0.000810159
3 *26:9 0.00431617
4 *26:7 0.00350601
5 *26:5 0.0385113
6 *26:9 *27:9 0
7 *26:9 *28:9 0.000931494
8 *26:9 *64:9 0.0166789
9 *26:9 *65:9 0.000192179
10 *26:9 *66:9 0.000447461
*RES
1 io_in[32] *26:5 308.565 
2 *26:5 *26:7 4.5 
3 *26:7 *26:9 53.55 
4 *26:9 *419:io_in[23] 10.305 
*END

*D_NET *27 0.13595
*CONN
*P io_in[33] I
*I *419:io_in[24] I *D user_proj_example
*CAP
1 io_in[33] 0.0387402
2 *419:io_in[24] 0.000659103
3 *27:9 0.00955364
4 *27:7 0.00889453
5 *27:5 0.0387402
6 *27:5 *107:15 0.000205446
7 *27:9 *419:io_in[28] 0.000501985
8 *27:9 *65:9 0.036566
9 *27:9 *107:15 0.00208894
10 *26:9 *27:9 0
*RES
1 io_in[33] *27:5 309.825 
2 *27:5 *27:7 4.5 
3 *27:7 *27:9 103.23 
4 *27:9 *419:io_in[24] 9.045 
*END

*D_NET *28 0.19361
*CONN
*P io_in[34] I
*I *419:io_in[25] I *D user_proj_example
*CAP
1 io_in[34] 0.0387377
2 *419:io_in[25] 0.000736116
3 *28:9 0.00303032
4 *28:7 0.0022942
5 *28:5 0.0387377
6 *28:9 *65:9 0.0524698
7 *28:9 *66:9 0.0566724
8 *26:9 *28:9 0.000931494
*RES
1 io_in[34] *28:5 309.465 
2 *28:5 *28:7 4.5 
3 *28:7 *28:9 152.91 
4 *28:9 *419:io_in[25] 9.405 
*END

*D_NET *29 0.235449
*CONN
*P io_in[35] I
*I *419:io_in[26] I *D user_proj_example
*CAP
1 io_in[35] 0.0386437
2 *419:io_in[26] 0.000813128
3 *29:9 0.00292552
4 *29:7 0.00211239
5 *29:5 0.0386437
6 *29:9 *64:9 0.000532787
7 *29:9 *66:9 0.0724981
8 *29:9 *105:9 0.0792795
*RES
1 io_in[35] *29:5 309.105 
2 *29:5 *29:7 4.5 
3 *29:7 *29:9 202.59 
4 *29:9 *419:io_in[26] 9.765 
*END

*D_NET *30 0.213729
*CONN
*P io_in[36] I
*I *419:io_in[27] I *D user_proj_example
*CAP
1 io_in[36] 0.0385282
2 *419:io_in[27] 0.000928646
3 *30:9 0.0133607
4 *30:7 0.0124321
5 *30:5 0.0385282
6 *30:9 *31:9 0
7 *30:9 *64:9 0.0102705
8 *30:9 *67:9 0.0926045
9 *30:9 *107:17 0.00707586
*RES
1 io_in[36] *30:5 308.565 
2 *30:5 *30:7 4.5 
3 *30:7 *30:9 252.27 
4 *30:9 *419:io_in[27] 10.305 
*END

*D_NET *31 0.23092
*CONN
*P io_in[37] I
*I *419:io_in[28] I *D user_proj_example
*CAP
1 io_in[37] 0.0383095
2 *419:io_in[28] 0.001929
3 *31:9 0.0220417
4 *31:7 0.0201127
5 *31:5 0.0383095
6 *419:io_in[28] io_oeb[32] 0
7 *419:io_in[28] *107:15 6.96766e-06
8 *31:9 *64:9 3.48037e-05
9 *31:9 *107:17 0.109674
10 *27:9 *419:io_in[28] 0.000501985
11 *30:9 *31:9 0
*RES
1 io_in[37] *31:5 307.305 
2 *31:5 *31:7 4.5 
3 *31:7 *31:9 296.19 
4 *31:9 *419:io_in[28] 26.505 
*END

*D_NET *38 0.158719
*CONN
*P io_in[9] I
*I *419:io_in[0] I *D user_proj_example
*CAP
1 io_in[9] 0.00148793
2 *419:io_in[0] 0.0377747
3 *38:11 0.0377747
4 *38:9 0.0205963
5 *38:7 0.0220842
6 *38:9 *40:9 0.000515627
7 *38:9 *41:9 0.00124921
8 *38:9 *42:9 0.0305993
9 *38:9 *78:9 0
10 *38:9 *80:9 0.00258007
11 *2:9 *38:9 0
12 *3:9 *38:9 0.00215058
13 *4:9 *38:9 0.00190614
*RES
1 io_in[9] *38:7 13.005 
2 *38:7 *38:9 230.13 
3 *38:9 *38:11 4.5 
4 *38:11 *419:io_in[0] 302.985 
*END

*D_NET *40 0.284378
*CONN
*P io_oeb[10] O
*I *419:io_oeb[1] O *D user_proj_example
*CAP
1 io_oeb[10] 0.00100437
2 *419:io_oeb[1] 0.0379549
3 *40:9 0.00358021
4 *40:7 0.00257584
5 *40:5 0.0379549
6 *40:9 *78:9 0.0989553
7 *3:9 *40:9 0.101837
8 *38:9 *40:9 0.000515627
*RES
1 *419:io_oeb[1] *40:5 304.065 
2 *40:5 *40:7 4.5 
3 *40:7 *40:9 266.31 
4 *40:9 io_oeb[10] 11.925 
*END

*D_NET *41 0.296063
*CONN
*P io_oeb[11] O
*I *419:io_oeb[2] O *D user_proj_example
*CAP
1 io_oeb[11] 0.00104753
2 *419:io_oeb[2] 0.0379287
3 *41:9 0.00471039
4 *41:7 0.00366285
5 *41:5 0.0379287
6 *3:9 *41:9 0.0989687
7 *4:9 *41:9 0.110567
8 *38:9 *41:9 0.00124921
*RES
1 *419:io_oeb[2] *41:5 303.705 
2 *41:5 *41:7 4.5 
3 *41:7 *41:9 287.73 
4 *41:9 io_oeb[11] 12.285 
*END

*D_NET *42 0.279882
*CONN
*P io_oeb[12] O
*I *419:io_oeb[3] O *D user_proj_example
*CAP
1 io_oeb[12] 0.00115354
2 *419:io_oeb[3] 0.0378639
3 *42:9 0.0172648
4 *42:7 0.0161112
5 *42:5 0.0378639
6 *42:9 *80:9 0.116339
7 *6:9 *42:9 0.022687
8 *38:9 *42:9 0.0305993
*RES
1 *419:io_oeb[3] *42:5 303.165 
2 *42:5 *42:7 4.5 
3 *42:7 *42:9 309.33 
4 *42:9 io_oeb[12] 12.825 
*END

*D_NET *43 0.335361
*CONN
*P io_oeb[13] O
*I *419:io_oeb[4] O *D user_proj_example
*CAP
1 io_oeb[13] 0.00109087
2 *419:io_oeb[4] 0.0379263
3 *43:9 0.00492665
4 *43:7 0.00383578
5 *43:5 0.0379263
6 *43:9 *80:9 0.0116451
7 *5:9 *43:9 0.11341
8 *6:9 *43:9 0.1246
*RES
1 *419:io_oeb[4] *43:5 303.345 
2 *43:5 *43:7 4.5 
3 *43:7 *43:9 330.93 
4 *43:9 io_oeb[13] 12.645 
*END

*D_NET *44 0.214599
*CONN
*P io_oeb[14] O
*I *419:io_oeb[5] O *D user_proj_example
*CAP
1 io_oeb[14] 0.0381581
2 *419:io_oeb[5] 0.000853332
3 *44:11 0.0381581
4 *44:9 0.0400305
5 *44:7 0.0408838
6 *44:9 *79:9 0.0565151
*RES
1 *419:io_oeb[5] *44:7 10.665 
2 *44:7 *44:9 352.53 
3 *44:9 *44:11 4.5 
4 *44:11 io_oeb[14] 305.325 
*END

*D_NET *45 0.282189
*CONN
*P io_oeb[15] O
*I *419:io_oeb[6] O *D user_proj_example
*CAP
1 io_oeb[15] 0.0451927
2 *419:io_oeb[6] 0.000815444
3 *45:11 0.0451927
4 *45:9 0.00391776
5 *45:7 0.0047332
6 *7:9 *45:9 0.0921556
7 *8:9 *45:9 0.087828
8 *10:9 *45:9 0.00235327
*RES
1 *419:io_oeb[6] *45:7 10.665 
2 *45:7 *45:9 254.07 
3 *45:9 *45:11 4.5 
4 *45:11 io_oeb[15] 348.345 
*END

*D_NET *46 0.225148
*CONN
*P io_oeb[16] O
*I *419:io_oeb[7] O *D user_proj_example
*CAP
1 io_oeb[16] 0.0451627
2 *419:io_oeb[7] 0.000861416
3 *46:11 0.0451627
4 *46:9 0.00304239
5 *46:7 0.0039038
6 *8:9 *46:9 0.0641494
7 *9:9 *46:9 0.0597742
8 *10:9 *46:9 0.003091
*RES
1 *419:io_oeb[7] *46:7 11.025 
2 *46:7 *46:9 184.41 
3 *46:9 *46:11 4.5 
4 *46:11 io_oeb[16] 347.985 
*END

*D_NET *47 0.146449
*CONN
*P io_oeb[17] O
*I *419:io_oeb[8] O *D user_proj_example
*CAP
1 io_oeb[17] 0.0451008
2 *419:io_oeb[8] 0.000907402
3 *47:11 0.0451008
4 *47:9 0.00819322
5 *47:7 0.00910062
6 *9:9 *47:9 0.0363304
7 *10:9 *47:9 0.00171582
*RES
1 *419:io_oeb[8] *47:7 11.385 
2 *47:7 *47:9 114.93 
3 *47:9 *47:11 4.5 
4 *47:11 io_oeb[17] 347.625 
*END

*D_NET *48 0.114533
*CONN
*P io_oeb[18] O
*I *419:io_oeb[9] O *D user_proj_example
*CAP
1 io_oeb[18] 0.0010524
2 *419:io_oeb[9] 0.00116332
3 *48:17 0.00392392
4 *48:13 0.0468247
5 *48:11 0.0451165
6 *48:17 *86:9 0.0132933
7 *11:11 *48:17 0.00315845
*RES
1 *419:io_oeb[9] *48:11 17.955 
2 *48:11 *48:13 339.21 
3 *48:13 *48:17 47.97 
4 *48:17 io_oeb[18] 12.645 
*END

*D_NET *49 0.100658
*CONN
*P io_oeb[19] O
*I *419:io_oeb[10] O *D user_proj_example
*CAP
1 io_oeb[19] 0.00133939
2 *419:io_oeb[10] 0.00301223
3 *49:13 0.0455574
4 *49:11 0.0472303
5 *419:io_in[11] *49:11 0.00351899
*RES
1 *419:io_oeb[10] *49:11 36.315 
2 *49:11 *49:13 341.37 
3 *49:13 io_oeb[19] 19.395 
*END

*D_NET *51 0.15618
*CONN
*P io_oeb[20] O
*I *419:io_oeb[11] O *D user_proj_example
*CAP
1 io_oeb[20] 0.0452158
2 *419:io_oeb[11] 0.000776492
3 *51:11 0.0452158
4 *51:9 0.00162284
5 *51:7 0.00239934
6 *51:9 *53:9 0.00151176
7 *51:9 *89:9 0.0236685
8 *51:9 *91:9 0.00106591
9 *14:9 *51:9 0.0328891
10 *15:9 *51:9 0.0001692
11 *16:9 *51:9 0.00164534
*RES
1 *419:io_oeb[11] *51:7 10.485 
2 *51:7 *51:9 94.41 
3 *51:9 *51:11 4.5 
4 *51:11 io_oeb[20] 348.525 
*END

*D_NET *52 0.211313
*CONN
*P io_oeb[21] O
*I *419:io_oeb[12] O *D user_proj_example
*CAP
1 io_oeb[21] 0.0449821
2 *419:io_oeb[12] 0.000962313
3 *52:11 0.0449821
4 *52:9 0.00287828