*SPEF "ieee 1481-1999"
*DESIGN "user_proj_example"
*DATE "11:11:11 Fri 11 11, 1111"
*VENDOR "OpenRCX"
*PROGRAM "Parallel Extraction"
*VERSION "1.0"
*DESIGN_FLOW "NAME_SCOPE LOCAL" "PIN_CAP NONE"
*DIVIDER /
*DELIMITER :
*BUS_DELIMITER []
*T_UNIT 1 NS
*C_UNIT 1 PF
*R_UNIT 1 OHM
*L_UNIT 1 HENRY

*NAME_MAP
*1 io_in[0]
*2 io_in[10]
*3 io_in[11]
*4 io_in[12]
*5 io_in[13]
*6 io_in[14]
*7 io_in[15]
*8 io_in[16]
*9 io_in[17]
*10 io_in[18]
*11 io_in[19]
*12 io_in[1]
*13 io_in[20]
*14 io_in[21]
*15 io_in[22]
*16 io_in[23]
*17 io_in[24]
*18 io_in[25]
*19 io_in[26]
*20 io_in[27]
*21 io_in[28]
*22 io_in[2]
*23 io_in[3]
*24 io_in[4]
*25 io_in[5]
*26 io_in[6]
*27 io_in[7]
*28 io_in[8]
*29 io_in[9]
*30 net54
*31 net62
*32 net63
*33 net64
*34 net65
*35 net66
*36 net67
*37 net68
*38 net69
*39 net70
*40 net71
*41 net55
*42 net72
*43 net73
*44 net74
*45 net75
*46 net76
*47 net77
*48 net78
*49 net79
*50 net80
*51 net56
*52 net57
*53 net58
*54 net59
*55 net60
*56 net61
*57 net81
*58 net82
*59 io_out[0]
*60 net32
*61 net33
*62 net34
*63 net35
*64 net36
*65 net37
*66 net38
*67 net39
*68 net40
*69 net41
*70 io_out[1]
*71 net42
*72 net43
*73 net44
*74 net45
*75 net46
*76 net47
*77 net48
*78 net49
*79 net50
*80 io_out[2]
*81 io_out[3]
*82 io_out[4]
*83 io_out[5]
*84 io_out[6]
*85 io_out[7]
*86 net30
*87 net31
*88 net51
*89 net52
*90 net53
*93 net1
*94 net10
*95 net11
*96 net12
*97 net13
*98 net14
*99 net15
*100 net16
*101 net17
*102 net18
*103 net19
*104 net2
*105 net20
*106 net21
*107 net22
*108 net23
*109 net24
*110 net25
*111 net26
*112 net27
*113 net28
*114 net29
*115 net3
*116 net4
*117 net5
*118 net6
*119 net7
*120 net8
*121 net9
*122 ANTENNA_gf180_sram_8x1024_addr0\[0\]
*123 ANTENNA_gf180_sram_8x1024_addr0\[1\]
*124 ANTENNA_gf180_sram_8x1024_addr0\[2\]
*125 ANTENNA_gf180_sram_8x1024_addr0\[3\]
*126 ANTENNA_gf180_sram_8x1024_addr0\[4\]
*127 ANTENNA_gf180_sram_8x1024_addr0\[5\]
*128 ANTENNA_gf180_sram_8x1024_addr0\[6\]
*129 ANTENNA_gf180_sram_8x1024_addr0\[7\]
*130 ANTENNA_gf180_sram_8x1024_addr0\[8\]
*131 ANTENNA_gf180_sram_8x1024_addr0\[9\]
*132 ANTENNA_gf180_sram_8x1024_clk0
*133 ANTENNA_gf180_sram_8x1024_csb0
*134 ANTENNA_gf180_sram_8x1024_din0\[0\]
*135 ANTENNA_gf180_sram_8x1024_din0\[1\]
*136 ANTENNA_gf180_sram_8x1024_din0\[2\]
*137 ANTENNA_gf180_sram_8x1024_din0\[3\]
*138 ANTENNA_gf180_sram_8x1024_din0\[4\]
*139 ANTENNA_gf180_sram_8x1024_din0\[5\]
*140 ANTENNA_gf180_sram_8x1024_din0\[6\]
*141 ANTENNA_gf180_sram_8x1024_din0\[7\]
*142 ANTENNA_gf180_sram_8x1024_dout0\[0\]
*143 ANTENNA_gf180_sram_8x1024_dout0\[1\]
*144 ANTENNA_gf180_sram_8x1024_dout0\[2\]
*145 ANTENNA_gf180_sram_8x1024_dout0\[3\]
*146 ANTENNA_gf180_sram_8x1024_dout0\[4\]
*147 ANTENNA_gf180_sram_8x1024_dout0\[5\]
*148 ANTENNA_gf180_sram_8x1024_dout0\[6\]
*149 ANTENNA_gf180_sram_8x1024_dout0\[7\]
*150 ANTENNA_gf180_sram_8x1024_web0
*151 ANTENNA_input10_I
*152 ANTENNA_input11_I
*153 ANTENNA_input12_I
*154 ANTENNA_input13_I
*155 ANTENNA_input14_I
*156 ANTENNA_input15_I
*157 ANTENNA_input16_I
*158 ANTENNA_input17_I
*159 ANTENNA_input18_I
*160 ANTENNA_input19_I
*161 ANTENNA_input1_I
*162 ANTENNA_input20_I
*163 ANTENNA_input21_I
*164 ANTENNA_input2_I
*165 ANTENNA_input3_I
*166 ANTENNA_input4_I
*167 ANTENNA_input5_I
*168 ANTENNA_input6_I
*169 ANTENNA_input7_I
*170 ANTENNA_input8_I
*171 ANTENNA_input9_I
*172 ANTENNA_output22_I
*173 ANTENNA_output23_I
*174 ANTENNA_output24_I
*175 ANTENNA_output25_I
*176 ANTENNA_output26_I
*177 ANTENNA_output27_I
*178 ANTENNA_output28_I
*179 ANTENNA_output29_I
*180 FILLER_0_0_1022
*181 FILLER_0_0_104
*182 FILLER_0_0_1056
*183 FILLER_0_0_1090
*184 FILLER_0_0_1124
*185 FILLER_0_0_1158
*186 FILLER_0_0_1192
*187 FILLER_0_0_1226
*188 FILLER_0_0_1260
*189 FILLER_0_0_1294
*190 FILLER_0_0_1328
*191 FILLER_0_0_1362
*192 FILLER_0_0_138
*193 FILLER_0_0_1396
*194 FILLER_0_0_1430
*195 FILLER_0_0_1464
*196 FILLER_0_0_1498
*197 FILLER_0_0_1514
*198 FILLER_0_0_1518
*199 FILLER_0_0_1523
*200 FILLER_0_0_1527
*201 FILLER_0_0_1529
*202 FILLER_0_0_1532
*203 FILLER_0_0_1566
*204 FILLER_0_0_1600
*205 FILLER_0_0_1634
*206 FILLER_0_0_1668
*207 FILLER_0_0_1702
*208 FILLER_0_0_172
*209 FILLER_0_0_1736
*210 FILLER_0_0_1770
*211 FILLER_0_0_1804
*212 FILLER_0_0_1812
*213 FILLER_0_0_206
*214 FILLER_0_0_22
*215 FILLER_0_0_240
*216 FILLER_0_0_274
*217 FILLER_0_0_290
*218 FILLER_0_0_294
*219 FILLER_0_0_299
*220 FILLER_0_0_30
*221 FILLER_0_0_303
*222 FILLER_0_0_305
*223 FILLER_0_0_308
*224 FILLER_0_0_342
*225 FILLER_0_0_36
*226 FILLER_0_0_376
*227 FILLER_0_0_410
*228 FILLER_0_0_444
*229 FILLER_0_0_478
*230 FILLER_0_0_512
*231 FILLER_0_0_546
*232 FILLER_0_0_580
*233 FILLER_0_0_6
*234 FILLER_0_0_614
*235 FILLER_0_0_648
*236 FILLER_0_0_682
*237 FILLER_0_0_70
*238 FILLER_0_0_716
*239 FILLER_0_0_750
*240 FILLER_0_0_784
*241 FILLER_0_0_818
*242 FILLER_0_0_852
*243 FILLER_0_0_886
*244 FILLER_0_0_902
*245 FILLER_0_0_906
*246 FILLER_0_0_911
*247 FILLER_0_0_915
*248 FILLER_0_0_917
*249 FILLER_0_0_920
*250 FILLER_0_0_954
*251 FILLER_0_0_988
*252 FILLER_0_100_101
*253 FILLER_0_100_107
*254 FILLER_0_100_139
*255 FILLER_0_100_143
*256 FILLER_0_100_145
*257 FILLER_0_100_1671
*258 FILLER_0_100_1703
*259 FILLER_0_100_1706
*260 FILLER_0_100_1770
*261 FILLER_0_100_1776
*262 FILLER_0_100_1808
*263 FILLER_0_100_1812
*264 FILLER_0_100_22
*265 FILLER_0_100_30
*266 FILLER_0_100_34
*267 FILLER_0_100_37
*268 FILLER_0_100_6
*269 FILLER_0_101_136
*270 FILLER_0_101_142
*271 FILLER_0_101_1671
*272 FILLER_0_101_1735
*273 FILLER_0_101_1741
*274 FILLER_0_101_1805
*275 FILLER_0_101_1811
*276 FILLER_0_101_1813
*277 FILLER_0_101_2
*278 FILLER_0_101_66
*279 FILLER_0_101_72
*280 FILLER_0_102_101
*281 FILLER_0_102_107
*282 FILLER_0_102_139
*283 FILLER_0_102_143
*284 FILLER_0_102_145
*285 FILLER_0_102_1671
*286 FILLER_0_102_1703
*287 FILLER_0_102_1706
*288 FILLER_0_102_1770
*289 FILLER_0_102_1776
*290 FILLER_0_102_1808
*291 FILLER_0_102_1812
*292 FILLER_0_102_2
*293 FILLER_0_102_34
*294 FILLER_0_102_37
*295 FILLER_0_103_136
*296 FILLER_0_103_142
*297 FILLER_0_103_1671
*298 FILLER_0_103_1735
*299 FILLER_0_103_1741
*300 FILLER_0_103_1805
*301 FILLER_0_103_1811
*302 FILLER_0_103_1813
*303 FILLER_0_103_2
*304 FILLER_0_103_66
*305 FILLER_0_103_72
*306 FILLER_0_104_101
*307 FILLER_0_104_107
*308 FILLER_0_104_139
*309 FILLER_0_104_143
*310 FILLER_0_104_145
*311 FILLER_0_104_1671
*312 FILLER_0_104_1703
*313 FILLER_0_104_1706
*314 FILLER_0_104_1770
*315 FILLER_0_104_1776
*316 FILLER_0_104_1808
*317 FILLER_0_104_1812
*318 FILLER_0_104_2
*319 FILLER_0_104_34
*320 FILLER_0_104_37
*321 FILLER_0_105_136
*322 FILLER_0_105_142
*323 FILLER_0_105_1671
*324 FILLER_0_105_1735
*325 FILLER_0_105_1741
*326 FILLER_0_105_1805
*327 FILLER_0_105_1811
*328 FILLER_0_105_1813
*329 FILLER_0_105_6
*330 FILLER_0_105_72
*331 FILLER_0_106_101
*332 FILLER_0_106_107
*333 FILLER_0_106_139
*334 FILLER_0_106_143
*335 FILLER_0_106_145
*336 FILLER_0_106_1671
*337 FILLER_0_106_1703
*338 FILLER_0_106_1706
*339 FILLER_0_106_1770
*340 FILLER_0_106_1776
*341 FILLER_0_106_1808
*342 FILLER_0_106_1812
*343 FILLER_0_106_2
*344 FILLER_0_106_34
*345 FILLER_0_106_37
*346 FILLER_0_107_136
*347 FILLER_0_107_142
*348 FILLER_0_107_1671
*349 FILLER_0_107_1735
*350 FILLER_0_107_1741
*351 FILLER_0_107_1805
*352 FILLER_0_107_1811
*353 FILLER_0_107_1813
*354 FILLER_0_107_2
*355 FILLER_0_107_66
*356 FILLER_0_107_72
*357 FILLER_0_108_101
*358 FILLER_0_108_107
*359 FILLER_0_108_139
*360 FILLER_0_108_143
*361 FILLER_0_108_145
*362 FILLER_0_108_1671
*363 FILLER_0_108_1703
*364 FILLER_0_108_1706
*365 FILLER_0_108_1770
*366 FILLER_0_108_1776
*367 FILLER_0_108_1808
*368 FILLER_0_108_1812
*369 FILLER_0_108_2
*370 FILLER_0_108_34
*371 FILLER_0_108_37
*372 FILLER_0_109_136
*373 FILLER_0_109_142
*374 FILLER_0_109_1671
*375 FILLER_0_109_1735
*376 FILLER_0_109_1741
*377 FILLER_0_109_1805
*378 FILLER_0_109_1811
*379 FILLER_0_109_1813
*380 FILLER_0_109_2
*381 FILLER_0_109_66
*382 FILLER_0_109_72
*383 FILLER_0_10_101
*384 FILLER_0_10_1011
*385 FILLER_0_10_1017
*386 FILLER_0_10_107
*387 FILLER_0_10_1081
*388 FILLER_0_10_1087
*389 FILLER_0_10_1151
*390 FILLER_0_10_1157
*391 FILLER_0_10_1221
*392 FILLER_0_10_1227
*393 FILLER_0_10_1291
*394 FILLER_0_10_1297
*395 FILLER_0_10_1361
*396 FILLER_0_10_1367
*397 FILLER_0_10_1431
*398 FILLER_0_10_1437
*399 FILLER_0_10_1501
*400 FILLER_0_10_1507
*401 FILLER_0_10_1571
*402 FILLER_0_10_1577
*403 FILLER_0_10_1641
*404 FILLER_0_10_1647
*405 FILLER_0_10_171
*406 FILLER_0_10_1711
*407 FILLER_0_10_1717
*408 FILLER_0_10_177
*409 FILLER_0_10_1781
*410 FILLER_0_10_1787
*411 FILLER_0_10_1803
*412 FILLER_0_10_1811
*413 FILLER_0_10_1813
*414 FILLER_0_10_2
*415 FILLER_0_10_241
*416 FILLER_0_10_247
*417 FILLER_0_10_311
*418 FILLER_0_10_317
*419 FILLER_0_10_34
*420 FILLER_0_10_37
*421 FILLER_0_10_381
*422 FILLER_0_10_387
*423 FILLER_0_10_451
*424 FILLER_0_10_457
*425 FILLER_0_10_521
*426 FILLER_0_10_527
*427 FILLER_0_10_591
*428 FILLER_0_10_597
*429 FILLER_0_10_661
*430 FILLER_0_10_667
*431 FILLER_0_10_731
*432 FILLER_0_10_737
*433 FILLER_0_10_801
*434 FILLER_0_10_807
*435 FILLER_0_10_871
*436 FILLER_0_10_877
*437 FILLER_0_10_941
*438 FILLER_0_10_947
*439 FILLER_0_110_101
*440 FILLER_0_110_107
*441 FILLER_0_110_12
*442 FILLER_0_110_139
*443 FILLER_0_110_143
*444 FILLER_0_110_145
*445 FILLER_0_110_1671
*446 FILLER_0_110_1703
*447 FILLER_0_110_1706
*448 FILLER_0_110_1770
*449 FILLER_0_110_1776
*450 FILLER_0_110_1808
*451 FILLER_0_110_1812
*452 FILLER_0_110_28
*453 FILLER_0_110_32
*454 FILLER_0_110_34
*455 FILLER_0_110_37
*456 FILLER_0_110_8
*457 FILLER_0_111_136
*458 FILLER_0_111_142
*459 FILLER_0_111_1671
*460 FILLER_0_111_1735
*461 FILLER_0_111_1741
*462 FILLER_0_111_1805
*463 FILLER_0_111_1811
*464 FILLER_0_111_1813
*465 FILLER_0_111_2
*466 FILLER_0_111_66
*467 FILLER_0_111_72
*468 FILLER_0_112_101
*469 FILLER_0_112_107
*470 FILLER_0_112_139
*471 FILLER_0_112_143
*472 FILLER_0_112_145
*473 FILLER_0_112_1671
*474 FILLER_0_112_1703
*475 FILLER_0_112_1706
*476 FILLER_0_112_1770
*477 FILLER_0_112_1776
*478 FILLER_0_112_1808
*479 FILLER_0_112_1812
*480 FILLER_0_112_2
*481 FILLER_0_112_34
*482 FILLER_0_112_37
*483 FILLER_0_113_136
*484 FILLER_0_113_142
*485 FILLER_0_113_1671
*486 FILLER_0_113_1735
*487 FILLER_0_113_1741
*488 FILLER_0_113_1805
*489 FILLER_0_113_1811
*490 FILLER_0_113_1813
*491 FILLER_0_113_2
*492 FILLER_0_113_66
*493 FILLER_0_113_72
*494 FILLER_0_114_101
*495 FILLER_0_114_107
*496 FILLER_0_114_139
*497 FILLER_0_114_143
*498 FILLER_0_114_145
*499 FILLER_0_114_1671
*500 FILLER_0_114_1703
*501 FILLER_0_114_1706
*502 FILLER_0_114_1770
*503 FILLER_0_114_1776
*504 FILLER_0_114_1808
*505 FILLER_0_114_1811
*506 FILLER_0_114_1813
*507 FILLER_0_114_2
*508 FILLER_0_114_34
*509 FILLER_0_114_37
*510 FILLER_0_115_136
*511 FILLER_0_115_142
*512 FILLER_0_115_1671
*513 FILLER_0_115_1735
*514 FILLER_0_115_1741
*515 FILLER_0_115_1773
*516 FILLER_0_115_1781
*517 FILLER_0_115_1811
*518 FILLER_0_115_1813
*519 FILLER_0_115_6
*520 FILLER_0_115_72
*521 FILLER_0_116_101
*522 FILLER_0_116_107
*523 FILLER_0_116_139
*524 FILLER_0_116_143
*525 FILLER_0_116_145
*526 FILLER_0_116_1671
*527 FILLER_0_116_1703
*528 FILLER_0_116_1706
*529 FILLER_0_116_1770
*530 FILLER_0_116_1776
*531 FILLER_0_116_1808
*532 FILLER_0_116_1812
*533 FILLER_0_116_2
*534 FILLER_0_116_34
*535 FILLER_0_116_37
*536 FILLER_0_117_136
*537 FILLER_0_117_142
*538 FILLER_0_117_1671
*539 FILLER_0_117_1735
*540 FILLER_0_117_1741
*541 FILLER_0_117_1805
*542 FILLER_0_117_1811
*543 FILLER_0_117_1813
*544 FILLER_0_117_2
*545 FILLER_0_117_66
*546 FILLER_0_117_72
*547 FILLER_0_118_101
*548 FILLER_0_118_107
*549 FILLER_0_118_139
*550 FILLER_0_118_143
*551 FILLER_0_118_145
*552 FILLER_0_118_1671
*553 FILLER_0_118_1703
*554 FILLER_0_118_1706
*555 FILLER_0_118_1770
*556 FILLER_0_118_1776
*557 FILLER_0_118_1808
*558 FILLER_0_118_1812
*559 FILLER_0_118_2
*560 FILLER_0_118_34
*561 FILLER_0_118_37
*562 FILLER_0_119_136
*563 FILLER_0_119_142
*564 FILLER_0_119_1671
*565 FILLER_0_119_1735
*566 FILLER_0_119_1741
*567 FILLER_0_119_1805
*568 FILLER_0_119_1811
*569 FILLER_0_119_1813
*570 FILLER_0_119_2
*571 FILLER_0_119_66
*572 FILLER_0_119_72
*573 FILLER_0_11_1046
*574 FILLER_0_11_1052
*575 FILLER_0_11_1116
*576 FILLER_0_11_1122
*577 FILLER_0_11_1186
*578 FILLER_0_11_1192
*579 FILLER_0_11_1256
*580 FILLER_0_11_1262
*581 FILLER_0_11_1326
*582 FILLER_0_11_1332
*583 FILLER_0_11_136
*584 FILLER_0_11_1396
*585 FILLER_0_11_1402
*586 FILLER_0_11_142
*587 FILLER_0_11_1466
*588 FILLER_0_11_1472
*589 FILLER_0_11_1536
*590 FILLER_0_11_1542
*591 FILLER_0_11_1606
*592 FILLER_0_11_1612
*593 FILLER_0_11_1676
*594 FILLER_0_11_1682
*595 FILLER_0_11_1746
*596 FILLER_0_11_1752
*597 FILLER_0_11_1784
*598 FILLER_0_11_1800
*599 FILLER_0_11_1808
*600 FILLER_0_11_1812
*601 FILLER_0_11_2
*602 FILLER_0_11_206
*603 FILLER_0_11_212
*604 FILLER_0_11_276
*605 FILLER_0_11_282
*606 FILLER_0_11_346
*607 FILLER_0_11_352
*608 FILLER_0_11_416
*609 FILLER_0_11_422
*610 FILLER_0_11_486
*611 FILLER_0_11_492
*612 FILLER_0_11_556
*613 FILLER_0_11_562
*614 FILLER_0_11_626
*615 FILLER_0_11_632
*616 FILLER_0_11_66
*617 FILLER_0_11_696
*618 FILLER_0_11_702
*619 FILLER_0_11_72
*620 FILLER_0_11_766
*621 FILLER_0_11_772
*622 FILLER_0_11_836
*623 FILLER_0_11_842
*624 FILLER_0_11_906
*625 FILLER_0_11_912
*626 FILLER_0_11_976
*627 FILLER_0_11_982
*628 FILLER_0_120_101
*629 FILLER_0_120_107
*630 FILLER_0_120_139
*631 FILLER_0_120_143
*632 FILLER_0_120_145
*633 FILLER_0_120_1671
*634 FILLER_0_120_1703
*635 FILLER_0_120_1706
*636 FILLER_0_120_1770
*637 FILLER_0_120_1776
*638 FILLER_0_120_1808
*639 FILLER_0_120_1812
*640 FILLER_0_120_22
*641 FILLER_0_120_30
*642 FILLER_0_120_34
*643 FILLER_0_120_37
*644 FILLER_0_120_6
*645 FILLER_0_121_136
*646 FILLER_0_121_142
*647 FILLER_0_121_1671
*648 FILLER_0_121_1735
*649 FILLER_0_121_1741
*650 FILLER_0_121_1805
*651 FILLER_0_121_1811
*652 FILLER_0_121_1813
*653 FILLER_0_121_2
*654 FILLER_0_121_66
*655 FILLER_0_121_72
*656 FILLER_0_122_101
*657 FILLER_0_122_107
*658 FILLER_0_122_139
*659 FILLER_0_122_143
*660 FILLER_0_122_145
*661 FILLER_0_122_1671
*662 FILLER_0_122_1703
*663 FILLER_0_122_1706
*664 FILLER_0_122_1770
*665 FILLER_0_122_1776
*666 FILLER_0_122_1808
*667 FILLER_0_122_1812
*668 FILLER_0_122_2
*669 FILLER_0_122_34
*670 FILLER_0_122_37
*671 FILLER_0_123_136
*672 FILLER_0_123_142
*673 FILLER_0_123_1671
*674 FILLER_0_123_1735
*675 FILLER_0_123_1741
*676 FILLER_0_123_1805
*677 FILLER_0_123_1811
*678 FILLER_0_123_1813
*679 FILLER_0_123_2
*680 FILLER_0_123_66
*681 FILLER_0_123_72
*682 FILLER_0_124_101
*683 FILLER_0_124_107
*684 FILLER_0_124_139
*685 FILLER_0_124_143
*686 FILLER_0_124_145
*687 FILLER_0_124_1671
*688 FILLER_0_124_1703
*689 FILLER_0_124_1706
*690 FILLER_0_124_1770
*691 FILLER_0_124_1776
*692 FILLER_0_124_1808
*693 FILLER_0_124_1812
*694 FILLER_0_124_2
*695 FILLER_0_124_34
*696 FILLER_0_124_37
*697 FILLER_0_125_12
*698 FILLER_0_125_136
*699 FILLER_0_125_142
*700 FILLER_0_125_1671
*701 FILLER_0_125_1735
*702 FILLER_0_125_1741
*703 FILLER_0_125_1805
*704 FILLER_0_125_1811
*705 FILLER_0_125_1813
*706 FILLER_0_125_44
*707 FILLER_0_125_60
*708 FILLER_0_125_68
*709 FILLER_0_125_72
*710 FILLER_0_125_8
*711 FILLER_0_126_101
*712 FILLER_0_126_107
*713 FILLER_0_126_139
*714 FILLER_0_126_143
*715 FILLER_0_126_145
*716 FILLER_0_126_1671
*717 FILLER_0_126_1703
*718 FILLER_0_126_1706
*719 FILLER_0_126_1770
*720 FILLER_0_126_1776
*721 FILLER_0_126_1808
*722 FILLER_0_126_2
*723 FILLER_0_126_34
*724 FILLER_0_126_37
*725 FILLER_0_127_136
*726 FILLER_0_127_142
*727 FILLER_0_127_1671
*728 FILLER_0_127_1735
*729 FILLER_0_127_1741
*730 FILLER_0_127_1805
*731 FILLER_0_127_1811
*732 FILLER_0_127_1813
*733 FILLER_0_127_2
*734 FILLER_0_127_66
*735 FILLER_0_127_72
*736 FILLER_0_128_101
*737 FILLER_0_128_107
*738 FILLER_0_128_139
*739 FILLER_0_128_143
*740 FILLER_0_128_145
*741 FILLER_0_128_1671
*742 FILLER_0_128_1703
*743 FILLER_0_128_1706
*744 FILLER_0_128_1770
*745 FILLER_0_128_1776
*746 FILLER_0_128_1808
*747 FILLER_0_128_1812
*748 FILLER_0_128_2
*749 FILLER_0_128_34
*750 FILLER_0_128_37
*751 FILLER_0_129_136
*752 FILLER_0_129_142
*753 FILLER_0_129_1671
*754 FILLER_0_129_1735
*755 FILLER_0_129_1741
*756 FILLER_0_129_1805
*757 FILLER_0_129_1811
*758 FILLER_0_129_1813
*759 FILLER_0_129_2
*760 FILLER_0_129_66
*761 FILLER_0_129_72
*762 FILLER_0_12_101
*763 FILLER_0_12_1011
*764 FILLER_0_12_1017
*765 FILLER_0_12_107
*766 FILLER_0_12_1081
*767 FILLER_0_12_1087
*768 FILLER_0_12_1151
*769 FILLER_0_12_1157
*770 FILLER_0_12_1221
*771 FILLER_0_12_1227
*772 FILLER_0_12_1291
*773 FILLER_0_12_1297
*774 FILLER_0_12_1361
*775 FILLER_0_12_1367
*776 FILLER_0_12_1431
*777 FILLER_0_12_1437
*778 FILLER_0_12_1501
*779 FILLER_0_12_1507
*780 FILLER_0_12_1571
*781 FILLER_0_12_1577
*782 FILLER_0_12_1641
*783 FILLER_0_12_1647
*784 FILLER_0_12_171
*785 FILLER_0_12_1711
*786 FILLER_0_12_1717
*787 FILLER_0_12_177
*788 FILLER_0_12_1781
*789 FILLER_0_12_1787
*790 FILLER_0_12_1803
*791 FILLER_0_12_1811
*792 FILLER_0_12_1813
*793 FILLER_0_12_2
*794 FILLER_0_12_241
*795 FILLER_0_12_247
*796 FILLER_0_12_311
*797 FILLER_0_12_317
*798 FILLER_0_12_34
*799 FILLER_0_12_37
*800 FILLER_0_12_381
*801 FILLER_0_12_387
*802 FILLER_0_12_451
*803 FILLER_0_12_457
*804 FILLER_0_12_521
*805 FILLER_0_12_527
*806 FILLER_0_12_591
*807 FILLER_0_12_597
*808 FILLER_0_12_661
*809 FILLER_0_12_667
*810 FILLER_0_12_731
*811 FILLER_0_12_737
*812 FILLER_0_12_801
*813 FILLER_0_12_807
*814 FILLER_0_12_871
*815 FILLER_0_12_877
*816 FILLER_0_12_941
*817 FILLER_0_12_947
*818 FILLER_0_130_101
*819 FILLER_0_130_107
*820 FILLER_0_130_139
*821 FILLER_0_130_143
*822 FILLER_0_130_145
*823 FILLER_0_130_1671
*824 FILLER_0_130_1703
*825 FILLER_0_130_1706
*826 FILLER_0_130_1770
*827 FILLER_0_130_1776
*828 FILLER_0_130_1808
*829 FILLER_0_130_1812
*830 FILLER_0_130_22
*831 FILLER_0_130_30
*832 FILLER_0_130_34
*833 FILLER_0_130_37
*834 FILLER_0_130_6
*835 FILLER_0_131_136
*836 FILLER_0_131_142
*837 FILLER_0_131_1671
*838 FILLER_0_131_1735
*839 FILLER_0_131_1741
*840 FILLER_0_131_1805
*841 FILLER_0_131_1811
*842 FILLER_0_131_1813
*843 FILLER_0_131_2
*844 FILLER_0_131_66
*845 FILLER_0_131_72
*846 FILLER_0_132_101
*847 FILLER_0_132_107
*848 FILLER_0_132_139
*849 FILLER_0_132_143
*850 FILLER_0_132_145
*851 FILLER_0_132_1671
*852 FILLER_0_132_1703
*853 FILLER_0_132_1706
*854 FILLER_0_132_1770
*855 FILLER_0_132_1776
*856 FILLER_0_132_1808
*857 FILLER_0_132_1812
*858 FILLER_0_132_2
*859 FILLER_0_132_34
*860 FILLER_0_132_37
*861 FILLER_0_133_136
*862 FILLER_0_133_142
*863 FILLER_0_133_1671
*864 FILLER_0_133_1735
*865 FILLER_0_133_1741
*866 FILLER_0_133_1805
*867 FILLER_0_133_1811
*868 FILLER_0_133_1813
*869 FILLER_0_133_2
*870 FILLER_0_133_66
*871 FILLER_0_133_72
*872 FILLER_0_134_101
*873 FILLER_0_134_107
*874 FILLER_0_134_139
*875 FILLER_0_134_143
*876 FILLER_0_134_145
*877 FILLER_0_134_1671
*878 FILLER_0_134_1703
*879 FILLER_0_134_1706
*880 FILLER_0_134_1770
*881 FILLER_0_134_1776
*882 FILLER_0_134_1808
*883 FILLER_0_134_1812
*884 FILLER_0_134_22
*885 FILLER_0_134_30
*886 FILLER_0_134_34
*887 FILLER_0_134_37
*888 FILLER_0_134_6
*889 FILLER_0_135_136
*890 FILLER_0_135_142
*891 FILLER_0_135_1671
*892 FILLER_0_135_1735
*893 FILLER_0_135_1741
*894 FILLER_0_135_1805
*895 FILLER_0_135_1811
*896 FILLER_0_135_1813
*897 FILLER_0_135_2
*898 FILLER_0_135_66
*899 FILLER_0_135_72
*900 FILLER_0_136_101
*901 FILLER_0_136_107
*902 FILLER_0_136_139
*903 FILLER_0_136_143
*904 FILLER_0_136_145
*905 FILLER_0_136_1671
*906 FILLER_0_136_1703
*907 FILLER_0_136_1706
*908 FILLER_0_136_1770
*909 FILLER_0_136_1776
*910 FILLER_0_136_1808
*911 FILLER_0_136_1812
*912 FILLER_0_136_2
*913 FILLER_0_136_34
*914 FILLER_0_136_37
*915 FILLER_0_137_136
*916 FILLER_0_137_142
*917 FILLER_0_137_1671
*918 FILLER_0_137_1735
*919 FILLER_0_137_1741
*920 FILLER_0_137_1805
*921 FILLER_0_137_1811
*922 FILLER_0_137_1813
*923 FILLER_0_137_2
*924 FILLER_0_137_66
*925 FILLER_0_137_72
*926 FILLER_0_138_101
*927 FILLER_0_138_107
*928 FILLER_0_138_139
*929 FILLER_0_138_143
*930 FILLER_0_138_145
*931 FILLER_0_138_1671
*932 FILLER_0_138_1703
*933 FILLER_0_138_1706
*934 FILLER_0_138_1770
*935 FILLER_0_138_1776
*936 FILLER_0_138_1808
*937 FILLER_0_138_1812
*938 FILLER_0_138_2
*939 FILLER_0_138_22
*940 FILLER_0_138_30
*941 FILLER_0_138_34
*942 FILLER_0_138_37
*943 FILLER_0_138_6
*944 FILLER_0_139_136
*945 FILLER_0_139_142
*946 FILLER_0_139_16
*947 FILLER_0_139_1671
*948 FILLER_0_139_1735
*949 FILLER_0_139_1741
*950 FILLER_0_139_1805
*951 FILLER_0_139_1811
*952 FILLER_0_139_1813
*953 FILLER_0_139_48
*954 FILLER_0_139_64
*955 FILLER_0_139_68
*956 FILLER_0_139_72
*957 FILLER_0_13_1046
*958 FILLER_0_13_1052
*959 FILLER_0_13_1116
*960 FILLER_0_13_1122
*961 FILLER_0_13_1186
*962 FILLER_0_13_1192
*963 FILLER_0_13_1256
*964 FILLER_0_13_1262
*965 FILLER_0_13_1326
*966 FILLER_0_13_1332
*967 FILLER_0_13_136
*968 FILLER_0_13_1396
*969 FILLER_0_13_1402
*970 FILLER_0_13_142
*971 FILLER_0_13_1466
*972 FILLER_0_13_1472
*973 FILLER_0_13_1536
*974 FILLER_0_13_1542
*975 FILLER_0_13_1606
*976 FILLER_0_13_1612
*977 FILLER_0_13_1676
*978 FILLER_0_13_1682
*979 FILLER_0_13_1746
*980 FILLER_0_13_1752
*981 FILLER_0_13_1784
*982 FILLER_0_13_1800
*983 FILLER_0_13_1808
*984 FILLER_0_13_206
*985 FILLER_0_13_212
*986 FILLER_0_13_276
*987 FILLER_0_13_282
*988 FILLER_0_13_346
*989 FILLER_0_13_352
*990 FILLER_0_13_416
*991 FILLER_0_13_422
*992 FILLER_0_13_486
*993 FILLER_0_13_492
*994 FILLER_0_13_556
*995 FILLER_0_13_562
*996 FILLER_0_13_6
*997 FILLER_0_13_626
*998 FILLER_0_13_632
*999 FILLER_0_13_696
*1000 FILLER_0_13_702
*1001 FILLER_0_13_72
*1002 FILLER_0_13_766
*1003 FILLER_0_13_772
*1004 FILLER_0_13_836
*1005 FILLER_0_13_842
*1006 FILLER_0_13_906
*1007 FILLER_0_13_912
*1008 FILLER_0_13_976
*1009 FILLER_0_13_982
*1010 FILLER_0_140_101
*1011 FILLER_0_140_107
*1012 FILLER_0_140_139
*1013 FILLER_0_140_143
*1014 FILLER_0_140_145
*1015 FILLER_0_140_1671
*1016 FILLER_0_140_1703
*1017 FILLER_0_140_1706
*1018 FILLER_0_140_1770
*1019 FILLER_0_140_1776
*1020 FILLER_0_140_1808
*1021 FILLER_0_140_1812
*1022 FILLER_0_140_2
*1023 FILLER_0_140_34
*1024 FILLER_0_140_37
*1025 FILLER_0_141_136
*1026 FILLER_0_141_142
*1027 FILLER_0_141_1671
*1028 FILLER_0_141_1735
*1029 FILLER_0_141_1741
*1030 FILLER_0_141_1805
*1031 FILLER_0_141_1811
*1032 FILLER_0_141_1813
*1033 FILLER_0_141_2
*1034 FILLER_0_141_66
*1035 FILLER_0_141_72
*1036 FILLER_0_142_101
*1037 FILLER_0_142_107
*1038 FILLER_0_142_139
*1039 FILLER_0_142_143
*1040 FILLER_0_142_145
*1041 FILLER_0_142_1671
*1042 FILLER_0_142_1703
*1043 FILLER_0_142_1706
*1044 FILLER_0_142_1770
*1045 FILLER_0_142_1776
*1046 FILLER_0_142_1808
*1047 FILLER_0_142_1812
*1048 FILLER_0_142_2
*1049 FILLER_0_142_34
*1050 FILLER_0_142_37
*1051 FILLER_0_143_136
*1052 FILLER_0_143_142
*1053 FILLER_0_143_1671
*1054 FILLER_0_143_1735
*1055 FILLER_0_143_1741
*1056 FILLER_0_143_1805
*1057 FILLER_0_143_1811
*1058 FILLER_0_143_1813
*1059 FILLER_0_143_2
*1060 FILLER_0_143_66
*1061 FILLER_0_143_72
*1062 FILLER_0_144_101
*1063 FILLER_0_144_107
*1064 FILLER_0_144_139
*1065 FILLER_0_144_143
*1066 FILLER_0_144_145
*1067 FILLER_0_144_1671
*1068 FILLER_0_144_1703
*1069 FILLER_0_144_1706
*1070 FILLER_0_144_1770
*1071 FILLER_0_144_1776
*1072 FILLER_0_144_1808
*1073 FILLER_0_144_1812
*1074 FILLER_0_144_22
*1075 FILLER_0_144_30
*1076 FILLER_0_144_34
*1077 FILLER_0_144_37
*1078 FILLER_0_144_6
*1079 FILLER_0_145_136
*1080 FILLER_0_145_142
*1081 FILLER_0_145_1671
*1082 FILLER_0_145_1735
*1083 FILLER_0_145_1741
*1084 FILLER_0_145_1805
*1085 FILLER_0_145_1811
*1086 FILLER_0_145_1813
*1087 FILLER_0_145_2
*1088 FILLER_0_145_66
*1089 FILLER_0_145_72
*1090 FILLER_0_146_101
*1091 FILLER_0_146_107
*1092 FILLER_0_146_139
*1093 FILLER_0_146_143
*1094 FILLER_0_146_145
*1095 FILLER_0_146_1671
*1096 FILLER_0_146_1703
*1097 FILLER_0_146_1706
*1098 FILLER_0_146_1770
*1099 FILLER_0_146_1776
*1100 FILLER_0_146_1808
*1101 FILLER_0_146_1812
*1102 FILLER_0_146_2
*1103 FILLER_0_146_34
*1104 FILLER_0_146_37
*1105 FILLER_0_147_136
*1106 FILLER_0_147_142
*1107 FILLER_0_147_1671
*1108 FILLER_0_147_1735
*1109 FILLER_0_147_1741
*1110 FILLER_0_147_1805
*1111 FILLER_0_147_1811
*1112 FILLER_0_147_1813
*1113 FILLER_0_147_2
*1114 FILLER_0_147_66
*1115 FILLER_0_147_72
*1116 FILLER_0_148_101
*1117 FILLER_0_148_107
*1118 FILLER_0_148_139
*1119 FILLER_0_148_143
*1120 FILLER_0_148_145
*1121 FILLER_0_148_1671
*1122 FILLER_0_148_1703
*1123 FILLER_0_148_1706
*1124 FILLER_0_148_1770
*1125 FILLER_0_148_1776
*1126 FILLER_0_148_1784
*1127 FILLER_0_148_2
*1128 FILLER_0_148_34
*1129 FILLER_0_148_37
*1130 FILLER_0_149_136
*1131 FILLER_0_149_142
*1132 FILLER_0_149_1671
*1133 FILLER_0_149_1735
*1134 FILLER_0_149_1741
*1135 FILLER_0_149_1805
*1136 FILLER_0_149_1811
*1137 FILLER_0_149_1813
*1138 FILLER_0_149_6
*1139 FILLER_0_149_72
*1140 FILLER_0_14_101
*1141 FILLER_0_14_1011
*1142 FILLER_0_14_1017
*1143 FILLER_0_14_107
*1144 FILLER_0_14_1081
*1145 FILLER_0_14_1087
*1146 FILLER_0_14_1151
*1147 FILLER_0_14_1157
*1148 FILLER_0_14_1221
*1149 FILLER_0_14_1227
*1150 FILLER_0_14_1291
*1151 FILLER_0_14_1297
*1152 FILLER_0_14_1361
*1153 FILLER_0_14_1367
*1154 FILLER_0_14_1431
*1155 FILLER_0_14_1437
*1156 FILLER_0_14_1501
*1157 FILLER_0_14_1507
*1158 FILLER_0_14_1571
*1159 FILLER_0_14_1577
*1160 FILLER_0_14_1641
*1161 FILLER_0_14_1647
*1162 FILLER_0_14_171
*1163 FILLER_0_14_1711
*1164 FILLER_0_14_1717
*1165 FILLER_0_14_177
*1166 FILLER_0_14_1781
*1167 FILLER_0_14_1787
*1168 FILLER_0_14_2
*1169 FILLER_0_14_241
*1170 FILLER_0_14_247
*1171 FILLER_0_14_311
*1172 FILLER_0_14_317
*1173 FILLER_0_14_34
*1174 FILLER_0_14_37
*1175 FILLER_0_14_381
*1176 FILLER_0_14_387
*1177 FILLER_0_14_451
*1178 FILLER_0_14_457
*1179 FILLER_0_14_521
*1180 FILLER_0_14_527
*1181 FILLER_0_14_591
*1182 FILLER_0_14_597
*1183 FILLER_0_14_661
*1184 FILLER_0_14_667
*1185 FILLER_0_14_731
*1186 FILLER_0_14_737
*1187 FILLER_0_14_801
*1188 FILLER_0_14_807
*1189 FILLER_0_14_871
*1190 FILLER_0_14_877
*1191 FILLER_0_14_941
*1192 FILLER_0_14_947
*1193 FILLER_0_150_101
*1194 FILLER_0_150_107
*1195 FILLER_0_150_139
*1196 FILLER_0_150_143
*1197 FILLER_0_150_145
*1198 FILLER_0_150_1671
*1199 FILLER_0_150_1703
*1200 FILLER_0_150_1706
*1201 FILLER_0_150_1770
*1202 FILLER_0_150_1776
*1203 FILLER_0_150_1808
*1204 FILLER_0_150_1812
*1205 FILLER_0_150_2
*1206 FILLER_0_150_34
*1207 FILLER_0_150_37
*1208 FILLER_0_151_136
*1209 FILLER_0_151_142
*1210 FILLER_0_151_1671
*1211 FILLER_0_151_1735
*1212 FILLER_0_151_1741
*1213 FILLER_0_151_1805
*1214 FILLER_0_151_1811
*1215 FILLER_0_151_1813
*1216 FILLER_0_151_2
*1217 FILLER_0_151_66
*1218 FILLER_0_151_72
*1219 FILLER_0_152_101
*1220 FILLER_0_152_107
*1221 FILLER_0_152_139
*1222 FILLER_0_152_143
*1223 FILLER_0_152_145
*1224 FILLER_0_152_1671
*1225 FILLER_0_152_1703
*1226 FILLER_0_152_1706
*1227 FILLER_0_152_1770
*1228 FILLER_0_152_1776
*1229 FILLER_0_152_1808
*1230 FILLER_0_152_1812
*1231 FILLER_0_152_2
*1232 FILLER_0_152_34
*1233 FILLER_0_152_37
*1234 FILLER_0_153_136
*1235 FILLER_0_153_142
*1236 FILLER_0_153_1671
*1237 FILLER_0_153_1735
*1238 FILLER_0_153_1741
*1239 FILLER_0_153_1805
*1240 FILLER_0_153_1811
*1241 FILLER_0_153_1813
*1242 FILLER_0_153_2
*1243 FILLER_0_153_6
*1244 FILLER_0_153_72
*1245 FILLER_0_154_101
*1246 FILLER_0_154_107
*1247 FILLER_0_154_139
*1248 FILLER_0_154_143
*1249 FILLER_0_154_145
*1250 FILLER_0_154_16
*1251 FILLER_0_154_1671
*1252 FILLER_0_154_1703
*1253 FILLER_0_154_1706
*1254 FILLER_0_154_1770
*1255 FILLER_0_154_1776
*1256 FILLER_0_154_1808
*1257 FILLER_0_154_1812
*1258 FILLER_0_154_32
*1259 FILLER_0_154_34
*1260 FILLER_0_154_37
*1261 FILLER_0_155_136
*1262 FILLER_0_155_142
*1263 FILLER_0_155_1671
*1264 FILLER_0_155_1735
*1265 FILLER_0_155_1741
*1266 FILLER_0_155_1805
*1267 FILLER_0_155_1811
*1268 FILLER_0_155_1813
*1269 FILLER_0_155_2
*1270 FILLER_0_155_66
*1271 FILLER_0_155_72
*1272 FILLER_0_156_101
*1273 FILLER_0_156_107
*1274 FILLER_0_156_139
*1275 FILLER_0_156_143
*1276 FILLER_0_156_145
*1277 FILLER_0_156_1671
*1278 FILLER_0_156_1703
*1279 FILLER_0_156_1706
*1280 FILLER_0_156_1770
*1281 FILLER_0_156_1776
*1282 FILLER_0_156_1808
*1283 FILLER_0_156_1812
*1284 FILLER_0_156_2
*1285 FILLER_0_156_34
*1286 FILLER_0_156_37
*1287 FILLER_0_157_136
*1288 FILLER_0_157_142
*1289 FILLER_0_157_1671
*1290 FILLER_0_157_1735
*1291 FILLER_0_157_1741
*1292 FILLER_0_157_1805
*1293 FILLER_0_157_1811
*1294 FILLER_0_157_1813
*1295 FILLER_0_157_2
*1296 FILLER_0_157_66
*1297 FILLER_0_157_72
*1298 FILLER_0_158_101
*1299 FILLER_0_158_107
*1300 FILLER_0_158_139
*1301 FILLER_0_158_143
*1302 FILLER_0_158_145
*1303 FILLER_0_158_1671
*1304 FILLER_0_158_1703
*1305 FILLER_0_158_1706
*1306 FILLER_0_158_1770
*1307 FILLER_0_158_1776
*1308 FILLER_0_158_1808
*1309 FILLER_0_158_1812
*1310 FILLER_0_158_2
*1311 FILLER_0_158_34
*1312 FILLER_0_158_37
*1313 FILLER_0_159_136
*1314 FILLER_0_159_142
*1315 FILLER_0_159_1671
*1316 FILLER_0_159_1735
*1317 FILLER_0_159_1741
*1318 FILLER_0_159_1811
*1319 FILLER_0_159_1813
*1320 FILLER_0_159_6
*1321 FILLER_0_159_72
*1322 FILLER_0_15_1046
*1323 FILLER_0_15_1052
*1324 FILLER_0_15_1116
*1325 FILLER_0_15_1122
*1326 FILLER_0_15_1186
*1327 FILLER_0_15_1192
*1328 FILLER_0_15_1256
*1329 FILLER_0_15_1262
*1330 FILLER_0_15_1326
*1331 FILLER_0_15_1332
*1332 FILLER_0_15_136
*1333 FILLER_0_15_1396
*1334 FILLER_0_15_1402
*1335 FILLER_0_15_142
*1336 FILLER_0_15_1466
*1337 FILLER_0_15_1472
*1338 FILLER_0_15_1536
*1339 FILLER_0_15_1542
*1340 FILLER_0_15_1606
*1341 FILLER_0_15_1612
*1342 FILLER_0_15_1676
*1343 FILLER_0_15_1682
*1344 FILLER_0_15_1746
*1345 FILLER_0_15_1752
*1346 FILLER_0_15_1784
*1347 FILLER_0_15_1800
*1348 FILLER_0_15_1808
*1349 FILLER_0_15_1812
*1350 FILLER_0_15_2
*1351 FILLER_0_15_206
*1352 FILLER_0_15_212
*1353 FILLER_0_15_276
*1354 FILLER_0_15_282
*1355 FILLER_0_15_346
*1356 FILLER_0_15_352
*1357 FILLER_0_15_416
*1358 FILLER_0_15_422
*1359 FILLER_0_15_486
*1360 FILLER_0_15_492
*1361 FILLER_0_15_556
*1362 FILLER_0_15_562
*1363 FILLER_0_15_626
*1364 FILLER_0_15_632
*1365 FILLER_0_15_66
*1366 FILLER_0_15_696
*1367 FILLER_0_15_702
*1368 FILLER_0_15_72
*1369 FILLER_0_15_766
*1370 FILLER_0_15_772
*1371 FILLER_0_15_836
*1372 FILLER_0_15_842
*1373 FILLER_0_15_906
*1374 FILLER_0_15_912
*1375 FILLER_0_15_976