*SPEF "ieee 1481-1999"
*DESIGN "user_project_wrapper"
*DATE "11:11:11 Fri 11 11, 1111"
*VENDOR "OpenRCX"
*PROGRAM "Parallel Extraction"
*VERSION "1.0"
*DESIGN_FLOW "NAME_SCOPE LOCAL" "PIN_CAP NONE"
*DIVIDER /
*DELIMITER :
*BUS_DELIMITER []
*T_UNIT 1 NS
*C_UNIT 1 PF
*R_UNIT 1 OHM
*L_UNIT 1 HENRY

*NAME_MAP
*1 io_in[0]
*2 io_in[10]
*3 io_in[11]
*4 io_in[12]
*5 io_in[13]
*6 io_in[14]
*7 io_in[15]
*8 io_in[16]
*9 io_in[17]
*10 io_in[18]
*11 io_in[19]
*12 io_in[1]
*13 io_in[20]
*14 io_in[21]
*15 io_in[22]
*16 io_in[23]
*17 io_in[24]
*18 io_in[25]
*19 io_in[26]
*20 io_in[27]
*21 io_in[28]
*22 io_in[29]
*23 io_in[2]
*24 io_in[30]
*25 io_in[31]
*26 io_in[32]
*27 io_in[33]
*28 io_in[34]
*29 io_in[35]
*30 io_in[36]
*31 io_in[37]
*32 io_in[3]
*33 io_in[4]
*34 io_in[5]
*35 io_in[6]
*36 io_in[7]
*37 io_in[8]
*38 io_in[9]
*39 io_oeb[0]
*40 io_oeb[10]
*41 io_oeb[11]
*42 io_oeb[12]
*43 io_oeb[13]
*44 io_oeb[14]
*45 io_oeb[15]
*46 io_oeb[16]
*47 io_oeb[17]
*48 io_oeb[18]
*49 io_oeb[19]
*50 io_oeb[1]
*51 io_oeb[20]
*52 io_oeb[21]
*53 io_oeb[22]
*54 io_oeb[23]
*55 io_oeb[24]
*56 io_oeb[25]
*57 io_oeb[26]
*58 io_oeb[27]
*59 io_oeb[28]
*60 io_oeb[29]
*61 io_oeb[2]
*62 io_oeb[30]
*63 io_oeb[31]
*64 io_oeb[32]
*65 io_oeb[33]
*66 io_oeb[34]
*67 io_oeb[35]
*68 io_oeb[36]
*69 io_oeb[37]
*70 io_oeb[3]
*71 io_oeb[4]
*72 io_oeb[5]
*73 io_oeb[6]
*74 io_oeb[7]
*75 io_oeb[8]
*76 io_oeb[9]
*77 io_out[0]
*78 io_out[10]
*79 io_out[11]
*80 io_out[12]
*81 io_out[13]
*82 io_out[14]
*83 io_out[15]
*84 io_out[16]
*85 io_out[17]
*86 io_out[18]
*87 io_out[19]
*88 io_out[1]
*89 io_out[20]
*90 io_out[21]
*91 io_out[22]
*92 io_out[23]
*93 io_out[24]
*94 io_out[25]
*95 io_out[26]
*96 io_out[27]
*97 io_out[28]
*98 io_out[29]
*99 io_out[2]
*100 io_out[30]
*101 io_out[31]
*102 io_out[32]
*103 io_out[33]
*104 io_out[34]
*105 io_out[35]
*106 io_out[36]
*107 io_out[37]
*108 io_out[3]
*109 io_out[4]
*110 io_out[5]
*111 io_out[6]
*112 io_out[7]
*113 io_out[8]
*114 io_out[9]
*115 la_data_in[0]
*116 la_data_in[10]
*117 la_data_in[11]
*118 la_data_in[12]
*119 la_data_in[13]
*120 la_data_in[14]
*121 la_data_in[15]
*122 la_data_in[16]
*123 la_data_in[17]
*124 la_data_in[18]
*125 la_data_in[19]
*126 la_data_in[1]
*127 la_data_in[20]
*128 la_data_in[21]
*129 la_data_in[22]
*130 la_data_in[23]
*131 la_data_in[24]
*132 la_data_in[25]
*133 la_data_in[26]
*134 la_data_in[27]
*135 la_data_in[28]
*136 la_data_in[29]
*137 la_data_in[2]
*138 la_data_in[30]
*139 la_data_in[31]
*140 la_data_in[32]
*141 la_data_in[33]
*142 la_data_in[34]
*143 la_data_in[35]
*144 la_data_in[36]
*145 la_data_in[37]
*146 la_data_in[38]
*147 la_data_in[39]
*148 la_data_in[3]
*149 la_data_in[40]
*150 la_data_in[41]
*151 la_data_in[42]
*152 la_data_in[43]
*153 la_data_in[44]
*154 la_data_in[45]
*155 la_data_in[46]
*156 la_data_in[47]
*157 la_data_in[48]
*158 la_data_in[49]
*159 la_data_in[4]
*160 la_data_in[50]
*161 la_data_in[51]
*162 la_data_in[52]
*163 la_data_in[53]
*164 la_data_in[54]
*165 la_data_in[55]
*166 la_data_in[56]
*167 la_data_in[57]
*168 la_data_in[58]
*169 la_data_in[59]
*170 la_data_in[5]
*171 la_data_in[60]
*172 la_data_in[61]
*173 la_data_in[62]
*174 la_data_in[63]
*175 la_data_in[6]
*176 la_data_in[7]
*177 la_data_in[8]
*178 la_data_in[9]
*179 la_data_out[0]
*180 la_data_out[10]
*181 la_data_out[11]
*182 la_data_out[12]
*183 la_data_out[13]
*184 la_data_out[14]
*185 la_data_out[15]
*186 la_data_out[16]
*187 la_data_out[17]
*188 la_data_out[18]
*189 la_data_out[19]
*190 la_data_out[1]
*191 la_data_out[20]
*192 la_data_out[21]
*193 la_data_out[22]
*194 la_data_out[23]
*195 la_data_out[24]
*196 la_data_out[25]
*197 la_data_out[26]
*198 la_data_out[27]
*199 la_data_out[28]
*200 la_data_out[29]
*201 la_data_out[2]
*202 la_data_out[30]
*203 la_data_out[31]
*204 la_data_out[32]
*205 la_data_out[33]
*206 la_data_out[34]
*207 la_data_out[35]
*208 la_data_out[36]
*209 la_data_out[37]
*210 la_data_out[38]
*211 la_data_out[39]
*212 la_data_out[3]
*213 la_data_out[40]
*214 la_data_out[41]
*215 la_data_out[42]
*216 la_data_out[43]
*217 la_data_out[44]
*218 la_data_out[45]
*219 la_data_out[46]
*220 la_data_out[47]
*221 la_data_out[48]
*222 la_data_out[49]
*223 la_data_out[4]
*224 la_data_out[50]
*225 la_data_out[51]
*226 la_data_out[52]
*227 la_data_out[53]
*228 la_data_out[54]
*229 la_data_out[55]
*230 la_data_out[56]
*231 la_data_out[57]
*232 la_data_out[58]
*233 la_data_out[59]
*234 la_data_out[5]
*235 la_data_out[60]
*236 la_data_out[61]
*237 la_data_out[62]
*238 la_data_out[63]
*239 la_data_out[6]
*240 la_data_out[7]
*241 la_data_out[8]
*242 la_data_out[9]
*243 la_oenb[0]
*244 la_oenb[10]
*245 la_oenb[11]
*246 la_oenb[12]
*247 la_oenb[13]
*248 la_oenb[14]
*249 la_oenb[15]
*250 la_oenb[16]
*251 la_oenb[17]
*252 la_oenb[18]
*253 la_oenb[19]
*254 la_oenb[1]
*255 la_oenb[20]
*256 la_oenb[21]
*257 la_oenb[22]
*258 la_oenb[23]
*259 la_oenb[24]
*260 la_oenb[25]
*261 la_oenb[26]
*262 la_oenb[27]
*263 la_oenb[28]
*264 la_oenb[29]
*265 la_oenb[2]
*266 la_oenb[30]
*267 la_oenb[31]
*268 la_oenb[32]
*269 la_oenb[33]
*270 la_oenb[34]
*271 la_oenb[35]
*272 la_oenb[36]
*273 la_oenb[37]
*274 la_oenb[38]
*275 la_oenb[39]
*276 la_oenb[3]
*277 la_oenb[40]
*278 la_oenb[41]
*279 la_oenb[42]
*280 la_oenb[43]
*281 la_oenb[44]
*282 la_oenb[45]
*283 la_oenb[46]
*284 la_oenb[47]
*285 la_oenb[48]
*286 la_oenb[49]
*287 la_oenb[4]
*288 la_oenb[50]
*289 la_oenb[51]
*290 la_oenb[52]
*291 la_oenb[53]
*292 la_oenb[54]
*293 la_oenb[55]
*294 la_oenb[56]
*295 la_oenb[57]
*296 la_oenb[58]
*297 la_oenb[59]
*298 la_oenb[5]
*299 la_oenb[60]
*300 la_oenb[61]
*301 la_oenb[62]
*302 la_oenb[63]
*303 la_oenb[6]
*304 la_oenb[7]
*305 la_oenb[8]
*306 la_oenb[9]
*307 user_clock2
*308 user_irq[0]
*309 user_irq[1]
*310 user_irq[2]
*313 wb_clk_i
*314 wb_rst_i
*315 wbs_ack_o
*316 wbs_adr_i[0]
*317 wbs_adr_i[10]
*318 wbs_adr_i[11]
*319 wbs_adr_i[12]
*320 wbs_adr_i[13]
*321 wbs_adr_i[14]
*322 wbs_adr_i[15]
*323 wbs_adr_i[16]
*324 wbs_adr_i[17]
*325 wbs_adr_i[18]
*326 wbs_adr_i[19]
*327 wbs_adr_i[1]
*328 wbs_adr_i[20]
*329 wbs_adr_i[21]
*330 wbs_adr_i[22]
*331 wbs_adr_i[23]
*332 wbs_adr_i[24]
*333 wbs_adr_i[25]
*334 wbs_adr_i[26]
*335 wbs_adr_i[27]
*336 wbs_adr_i[28]
*337 wbs_adr_i[29]
*338 wbs_adr_i[2]
*339 wbs_adr_i[30]
*340 wbs_adr_i[31]
*341 wbs_adr_i[3]
*342 wbs_adr_i[4]
*343 wbs_adr_i[5]
*344 wbs_adr_i[6]
*345 wbs_adr_i[7]
*346 wbs_adr_i[8]
*347 wbs_adr_i[9]
*348 wbs_cyc_i
*349 wbs_dat_i[0]
*350 wbs_dat_i[10]
*351 wbs_dat_i[11]
*352 wbs_dat_i[12]
*353 wbs_dat_i[13]
*354 wbs_dat_i[14]
*355 wbs_dat_i[15]
*356 wbs_dat_i[16]
*357 wbs_dat_i[17]
*358 wbs_dat_i[18]
*359 wbs_dat_i[19]
*360 wbs_dat_i[1]
*361 wbs_dat_i[20]
*362 wbs_dat_i[21]
*363 wbs_dat_i[22]
*364 wbs_dat_i[23]
*365 wbs_dat_i[24]
*366 wbs_dat_i[25]
*367 wbs_dat_i[26]
*368 wbs_dat_i[27]
*369 wbs_dat_i[28]
*370 wbs_dat_i[29]
*371 wbs_dat_i[2]
*372 wbs_dat_i[30]
*373 wbs_dat_i[31]
*374 wbs_dat_i[3]
*375 wbs_dat_i[4]
*376 wbs_dat_i[5]
*377 wbs_dat_i[6]
*378 wbs_dat_i[7]
*379 wbs_dat_i[8]
*380 wbs_dat_i[9]
*381 wbs_dat_o[0]
*382 wbs_dat_o[10]
*383 wbs_dat_o[11]
*384 wbs_dat_o[12]
*385 wbs_dat_o[13]
*386 wbs_dat_o[14]
*387 wbs_dat_o[15]
*388 wbs_dat_o[16]
*389 wbs_dat_o[17]
*390 wbs_dat_o[18]
*391 wbs_dat_o[19]
*392 wbs_dat_o[1]
*393 wbs_dat_o[20]
*394 wbs_dat_o[21]
*395 wbs_dat_o[22]
*396 wbs_dat_o[23]
*397 wbs_dat_o[24]
*398 wbs_dat_o[25]
*399 wbs_dat_o[26]
*400 wbs_dat_o[27]
*401 wbs_dat_o[28]
*402 wbs_dat_o[29]
*403 wbs_dat_o[2]
*404 wbs_dat_o[30]
*405 wbs_dat_o[31]
*406 wbs_dat_o[3]
*407 wbs_dat_o[4]
*408 wbs_dat_o[5]
*409 wbs_dat_o[6]
*410 wbs_dat_o[7]
*411 wbs_dat_o[8]
*412 wbs_dat_o[9]
*413 wbs_sel_i[0]
*414 wbs_sel_i[1]
*415 wbs_sel_i[2]
*416 wbs_sel_i[3]
*417 wbs_stb_i
*418 wbs_we_i
*419 mprj

*PORTS
io_in[0] I
io_in[10] I
io_in[11] I
io_in[12] I
io_in[13] I
io_in[14] I
io_in[15] I
io_in[16] I
io_in[17] I
io_in[18] I
io_in[19] I
io_in[1] I
io_in[20] I
io_in[21] I
io_in[22] I
io_in[23] I
io_in[24] I
io_in[25] I
io_in[26] I
io_in[27] I
io_in[28] I
io_in[29] I
io_in[2] I
io_in[30] I
io_in[31] I
io_in[32] I
io_in[33] I
io_in[34] I
io_in[35] I
io_in[36] I
io_in[37] I
io_in[3] I
io_in[4] I
io_in[5] I
io_in[6] I
io_in[7] I
io_in[8] I
io_in[9] I
io_oeb[0] O
io_oeb[10] O
io_oeb[11] O
io_oeb[12] O
io_oeb[13] O
io_oeb[14] O
io_oeb[15] O
io_oeb[16] O
io_oeb[17] O
io_oeb[18] O
io_oeb[19] O
io_oeb[1] O
io_oeb[20] O
io_oeb[21] O
io_oeb[22] O
io_oeb[23] O
io_oeb[24] O
io_oeb[25] O
io_oeb[26] O
io_oeb[27] O
io_oeb[28] O
io_oeb[29] O
io_oeb[2] O
io_oeb[30] O
io_oeb[31] O
io_oeb[32] O
io_oeb[33] O
io_oeb[34] O
io_oeb[35] O
io_oeb[36] O
io_oeb[37] O
io_oeb[3] O
io_oeb[4] O
io_oeb[5] O
io_oeb[6] O
io_oeb[7] O
io_oeb[8] O
io_oeb[9] O
io_out[0] O
io_out[10] O
io_out[11] O
io_out[12] O
io_out[13] O
io_out[14] O
io_out[15] O
io_out[16] O
io_out[17] O
io_out[18] O
io_out[19] O
io_out[1] O
io_out[20] O
io_out[21] O
io_out[22] O
io_out[23] O
io_out[24] O
io_out[25] O
io_out[26] O
io_out[27] O
io_out[28] O
io_out[29] O
io_out[2] O
io_out[30] O
io_out[31] O
io_out[32] O
io_out[33] O
io_out[34] O
io_out[35] O
io_out[36] O
io_out[37] O
io_out[3] O
io_out[4] O
io_out[5] O
io_out[6] O
io_out[7] O
io_out[8] O
io_out[9] O
la_data_in[0] I
la_data_in[10] I
la_data_in[11] I
la_data_in[12] I
la_data_in[13] I
la_data_in[14] I
la_data_in[15] I
la_data_in[16] I
la_data_in[17] I
la_data_in[18] I
la_data_in[19] I
la_data_in[1] I
la_data_in[20] I
la_data_in[21] I
la_data_in[22] I
la_data_in[23] I
la_data_in[24] I
la_data_in[25] I
la_data_in[26] I
la_data_in[27] I
la_data_in[28] I
la_data_in[29] I
la_data_in[2] I
la_data_in[30] I
la_data_in[31] I
la_data_in[32] I
la_data_in[33] I
la_data_in[34] I
la_data_in[35] I
la_data_in[36] I
la_data_in[37] I
la_data_in[38] I
la_data_in[39] I
la_data_in[3] I
la_data_in[40] I
la_data_in[41] I
la_data_in[42] I
la_data_in[43] I
la_data_in[44] I
la_data_in[45] I
la_data_in[46] I
la_data_in[47] I
la_data_in[48] I
la_data_in[49] I
la_data_in[4] I
la_data_in[50] I
la_data_in[51] I
la_data_in[52] I
la_data_in[53] I
la_data_in[54] I
la_data_in[55] I
la_data_in[56] I
la_data_in[57] I
la_data_in[58] I
la_data_in[59] I
la_data_in[5] I
la_data_in[60] I
la_data_in[61] I
la_data_in[62] I
la_data_in[63] I
la_data_in[6] I
la_data_in[7] I
la_data_in[8] I
la_data_in[9] I
la_data_out[0] O
la_data_out[10] O
la_data_out[11] O
la_data_out[12] O
la_data_out[13] O
la_data_out[14] O
la_data_out[15] O
la_data_out[16] O
la_data_out[17] O
la_data_out[18] O
la_data_out[19] O
la_data_out[1] O
la_data_out[20] O
la_data_out[21] O
la_data_out[22] O
la_data_out[23] O
la_data_out[24] O
la_data_out[25] O
la_data_out[26] O
la_data_out[27] O
la_data_out[28] O
la_data_out[29] O
la_data_out[2] O
la_data_out[30] O
la_data_out[31] O
la_data_out[32] O
la_data_out[33] O
la_data_out[34] O
la_data_out[35] O
la_data_out[36] O
la_data_out[37] O
la_data_out[38] O
la_data_out[39] O
la_data_out[3] O
la_data_out[40] O
la_data_out[41] O
la_data_out[42] O
la_data_out[43] O
la_data_out[44] O
la_data_out[45] O
la_data_out[46] O
la_data_out[47] O
la_data_out[48] O
la_data_out[49] O
la_data_out[4] O
la_data_out[50] O
la_data_out[51] O
la_data_out[52] O
la_data_out[53] O
la_data_out[54] O
la_data_out[55] O
la_data_out[56] O
la_data_out[57] O
la_data_out[58] O
la_data_out[59] O
la_data_out[5] O
la_data_out[60] O
la_data_out[61] O
la_data_out[62] O
la_data_out[63] O
la_data_out[6] O
la_data_out[7] O
la_data_out[8] O
la_data_out[9] O
la_oenb[0] I
la_oenb[10] I
la_oenb[11] I
la_oenb[12] I
la_oenb[13] I
la_oenb[14] I
la_oenb[15] I
la_oenb[16] I
la_oenb[17] I
la_oenb[18] I
la_oenb[19] I
la_oenb[1] I
la_oenb[20] I
la_oenb[21] I
la_oenb[22] I
la_oenb[23] I
la_oenb[24] I
la_oenb[25] I
la_oenb[26] I
la_oenb[27] I
la_oenb[28] I
la_oenb[29] I
la_oenb[2] I
la_oenb[30] I
la_oenb[31] I
la_oenb[32] I
la_oenb[33] I
la_oenb[34] I
la_oenb[35] I
la_oenb[36] I
la_oenb[37] I
la_oenb[38] I
la_oenb[39] I
la_oenb[3] I
la_oenb[40] I
la_oenb[41] I
la_oenb[42] I
la_oenb[43] I
la_oenb[44] I
la_oenb[45] I
la_oenb[46] I
la_oenb[47] I
la_oenb[48] I
la_oenb[49] I
la_oenb[4] I
la_oenb[50] I
la_oenb[51] I
la_oenb[52] I
la_oenb[53] I
la_oenb[54] I
la_oenb[55] I
la_oenb[56] I
la_oenb[57] I
la_oenb[58] I
la_oenb[59] I
la_oenb[5] I
la_oenb[60] I
la_oenb[61] I
la_oenb[62] I
la_oenb[63] I
la_oenb[6] I
la_oenb[7] I
la_oenb[8] I
la_oenb[9] I
user_clock2 I
user_irq[0] O
user_irq[1] O
user_irq[2] O
wb_clk_i I
wb_rst_i I
wbs_ack_o O
wbs_adr_i[0] I
wbs_adr_i[10] I
wbs_adr_i[11] I
wbs_adr_i[12] I
wbs_adr_i[13] I
wbs_adr_i[14] I
wbs_adr_i[15] I
wbs_adr_i[16] I
wbs_adr_i[17] I
wbs_adr_i[18] I
wbs_adr_i[19] I
wbs_adr_i[1] I
wbs_adr_i[20] I
wbs_adr_i[21] I
wbs_adr_i[22] I
wbs_adr_i[23] I
wbs_adr_i[24] I
wbs_adr_i[25] I
wbs_adr_i[26] I
wbs_adr_i[27] I
wbs_adr_i[28] I
wbs_adr_i[29] I
wbs_adr_i[2] I
wbs_adr_i[30] I
wbs_adr_i[31] I
wbs_adr_i[3] I
wbs_adr_i[4] I
wbs_adr_i[5] I
wbs_adr_i[6] I
wbs_adr_i[7] I
wbs_adr_i[8] I
wbs_adr_i[9] I
wbs_cyc_i I
wbs_dat_i[0] I
wbs_dat_i[10] I
wbs_dat_i[11] I
wbs_dat_i[12] I
wbs_dat_i[13] I
wbs_dat_i[14] I
wbs_dat_i[15] I
wbs_dat_i[16] I
wbs_dat_i[17] I
wbs_dat_i[18] I
wbs_dat_i[19] I
wbs_dat_i[1] I
wbs_dat_i[20] I
wbs_dat_i[21] I
wbs_dat_i[22] I
wbs_dat_i[23] I
wbs_dat_i[24] I
wbs_dat_i[25] I
wbs_dat_i[26] I
wbs_dat_i[27] I
wbs_dat_i[28] I
wbs_dat_i[29] I
wbs_dat_i[2] I
wbs_dat_i[30] I
wbs_dat_i[31] I
wbs_dat_i[3] I
wbs_dat_i[4] I
wbs_dat_i[5] I
wbs_dat_i[6] I
wbs_dat_i[7] I
wbs_dat_i[8] I
wbs_dat_i[9] I
wbs_dat_o[0] O
wbs_dat_o[10] O
wbs_dat_o[11] O
wbs_dat_o[12] O
wbs_dat_o[13] O
wbs_dat_o[14] O
wbs_dat_o[15] O
wbs_dat_o[16] O
wbs_dat_o[17] O
wbs_dat_o[18] O
wbs_dat_o[19] O
wbs_dat_o[1] O
wbs_dat_o[20] O
wbs_dat_o[21] O
wbs_dat_o[22] O
wbs_dat_o[23] O
wbs_dat_o[24] O
wbs_dat_o[25] O
wbs_dat_o[26] O
wbs_dat_o[27] O
wbs_dat_o[28] O
wbs_dat_o[29] O
wbs_dat_o[2] O
wbs_dat_o[30] O
wbs_dat_o[31] O
wbs_dat_o[3] O
wbs_dat_o[4] O
wbs_dat_o[5] O
wbs_dat_o[6] O
wbs_dat_o[7] O
wbs_dat_o[8] O
wbs_dat_o[9] O
wbs_sel_i[0] I
wbs_sel_i[1] I
wbs_sel_i[2] I
wbs_sel_i[3] I
wbs_stb_i I
wbs_we_i I

*D_NET *2 0.189047
*CONN
*P io_in[10] I
*I *419:io_in[1] I *D user_proj_example
*CAP
1 io_in[10] 0.000902349
2 *419:io_in[1] 0.0361171
3 *2:11 0.0361171
4 *2:9 0.0156976
5 *2:7 0.0166
6 *2:9 *38:9 0
7 *2:9 *78:9 0.0836133
*RES
1 io_in[10] *2:7 10.466 
2 *2:7 *2:9 212.572 
3 *2:9 *2:11 4.5 
4 *2:11 *419:io_in[1] 257.07 
*END

*D_NET *3 0.256166
*CONN
*P io_in[11] I
*I *419:io_in[2] I *D user_proj_example
*CAP
1 io_in[11] 0.000964261
2 *419:io_in[2] 0.0360551
3 *3:11 0.0360551
4 *3:9 0.00253994
5 *3:7 0.00350421
6 *3:9 *38:9 0.00206962
7 *3:9 *40:9 0.0887391
8 *3:9 *41:9 0.0862386
*RES
1 io_in[11] *3:7 10.922 
2 *3:7 *3:9 230.812 
3 *3:9 *3:11 4.5 
4 *3:11 *419:io_in[2] 256.614 
*END

*D_NET *4 0.286407
*CONN
*P io_in[12] I
*I *419:io_in[3] I *D user_proj_example
*CAP
1 io_in[12] 0.00101076
2 *419:io_in[3] 0.0360276
3 *4:11 0.0360276
4 *4:9 0.0019667
5 *4:7 0.00297746
6 *4:9 *5:9 0.0114496
7 *4:9 *38:9 0.00181496
8 *4:9 *41:9 0.0963491
9 *4:9 *80:9 0.0987835
*RES
1 io_in[12] *4:7 11.226 
2 *4:7 *4:9 249.052 
3 *4:9 *4:11 4.5 
4 *4:11 *419:io_in[3] 256.31 
*END

*D_NET *5 0.22681
*CONN
*P io_in[13] I
*I *419:io_in[4] I *D user_proj_example
*CAP
1 io_in[13] 0.00100573
2 *419:io_in[4] 0.0360601
3 *5:11 0.0360601
4 *5:9 0.0212986
5 *5:7 0.0223043
6 *5:9 *43:9 0.0986316
7 *4:9 *5:9 0.0114496
*RES
1 io_in[13] *5:7 11.226 
2 *5:7 *5:9 267.292 
3 *5:9 *5:11 4.5 
4 *5:11 *419:io_in[4] 256.31 
*END

*D_NET *6 0.264167
*CONN
*P io_in[14] I
*I *419:io_in[5] I *D user_proj_example
*CAP
1 io_in[14] 0.00124957
2 *419:io_in[5] 0.0441298
3 *6:11 0.0441298
4 *6:9 0.022202
5 *6:7 0.0234516
6 *6:9 *42:9 0.0206412
7 *6:9 *43:9 0.108363
*RES
1 io_in[14] *6:7 11.53 
2 *6:7 *6:9 285.532 
3 *6:9 *6:11 4.5 
4 *6:11 *419:io_in[5] 256.006 
*END

*D_NET *7 0.212067
*CONN
*P io_in[15] I
*I *419:io_in[6] I *D user_proj_example
*CAP
1 io_in[15] 0.0429336
2 *419:io_in[6] 0.000736759
3 *7:9 0.0229484
4 *7:7 0.0222116
5 *7:5 0.0429336
6 *7:9 *45:9 0.0803034
*RES
1 io_in[15] *7:5 294.31 
2 *7:5 *7:7 4.5 
3 *7:7 *7:9 253.764 
4 *7:9 *419:io_in[6] 9.554 
*END

*D_NET *8 0.231147
*CONN
*P io_in[16] I
*I *419:io_in[7] I *D user_proj_example
*CAP
1 io_in[16] 0.0429027
2 *419:io_in[7] 0.000793308
3 *8:9 0.00540705
4 *8:7 0.00461375
5 *8:5 0.0429027
6 *8:9 *10:9 0.00209459
7 *8:9 *45:9 0.0765344
8 *8:9 *46:9 0.0558982
*RES
1 io_in[16] *8:5 294.006 
2 *8:5 *8:7 4.5 
3 *8:7 *8:9 194.94 
4 *8:9 *419:io_in[7] 9.858 
*END

*D_NET *9 0.18168
*CONN
*P io_in[17] I
*I *419:io_in[8] I *D user_proj_example
*CAP
1 io_in[17] 0.0428718
2 *419:io_in[8] 0.000837046
3 *9:9 0.00555172
4 *9:7 0.00471467
5 *9:5 0.0428718
6 *9:9 *10:9 0.00108774
7 *9:9 *46:9 0.0520865
8 *9:9 *47:9 0.0316587
*RES
1 io_in[17] *9:5 293.702 
2 *9:5 *9:7 4.5 
3 *9:7 *9:9 136.116 
4 *9:9 *419:io_in[8] 10.162 
*END

*D_NET *10 0.112523
*CONN
*P io_in[18] I
*I *419:io_in[9] I *D user_proj_example
*CAP
1 io_in[18] 0.0429593
2 *419:io_in[9] 0.000736759
3 *10:9 0.00838168
4 *10:7 0.00764492
5 *10:5 0.0429593
6 *10:9 *45:9 0.0020508
7 *10:9 *46:9 0.0029562
8 *10:9 *47:9 0.00165178
9 *8:9 *10:9 0.00209459
10 *9:9 *10:9 0.00108774
*RES
1 io_in[18] *10:5 294.31 
2 *10:5 *10:7 4.5 
3 *10:7 *10:9 77.292 
4 *10:9 *419:io_in[9] 9.554 
*END

*D_NET *11 0.0944281
*CONN
*P io_in[19] I
*I *419:io_in[10] I *D user_proj_example
*CAP
1 io_in[19] 0.00325327
2 *419:io_in[10] 0.0425853
3 *11:11 0.0458386
4 *11:11 *48:19 0.00275099
*RES
1 io_in[19] *11:11 34.498 
2 *11:11 *419:io_in[10] 292.334 
*END

*D_NET *13 0.103116
*CONN
*P io_in[20] I
*I *419:io_in[11] I *D user_proj_example
*CAP
1 io_in[20] 0.00403726
2 *419:io_in[11] 0.00230909
3 *13:13 0.0442006
4 *13:11 0.0459288
5 *419:io_in[11] *49:11 0.00306511
6 *419:io_in[11] *89:9 0.00357537
*RES
1 io_in[20] *13:11 37.386 
2 *13:11 *13:13 287.356 
3 *13:13 *419:io_in[11] 32.978 
*END

*D_NET *14 0.140063
*CONN
*P io_in[21] I
*I *419:io_in[12] I *D user_proj_example
*CAP
1 io_in[21] 0.042994
2 *419:io_in[12] 0.00071489
3 *14:9 0.00800094
4 *14:7 0.00728605
5 *14:5 0.042994
6 *14:9 *16:9 0.000436137
7 *14:9 *51:9 0.0286574
8 *14:9 *54:9 0.00681793
9 *14:9 *92:9 0.00216115
*RES
1 io_in[21] *14:5 294.462 
2 *14:5 *14:7 4.5 
3 *14:7 *14:9 99.332 
4 *14:9 *419:io_in[12] 9.402 
*END

*D_NET *15 0.208192
*CONN
*P io_in[22] I
*I *419:io_in[13] I *D user_proj_example
*CAP
1 io_in[22] 0.0427602
2 *419:io_in[13] 0.000884559
3 *15:9 0.00362917
4 *15:7 0.00274461
5 *15:5 0.0427602
6 *15:9 *51:9 0.000162609
7 *15:9 *52:9 0.0531546
8 *15:9 *89:9 0.00088265
9 *15:9 *91:9 0.0612134
*RES
1 io_in[22] *15:5 293.55 
2 *15:5 *15:7 4.5 
3 *15:7 *15:9 158.156 
4 *15:9 *419:io_in[13] 10.314 
*END

*D_NET *16 0.257683
*CONN
*P io_in[23] I
*I *419:io_in[14] I *D user_proj_example
*CAP
1 io_in[23] 0.0428258
2 *419:io_in[14] 0.00080613
3 *16:9 0.00341493
4 *16:7 0.0026088
5 *16:5 0.0428258
6 *16:9 *51:9 0.00153391
7 *16:9 *53:9 0.0775493
8 *16:9 *92:9 0.085682
9 *14:9 *16:9 0.000436137
*RES
1 io_in[23] *16:5 294.006 
2 *16:5 *16:7 4.5 
3 *16:7 *16:9 216.98 
4 *16:9 *419:io_in[14] 9.858 
*END

*D_NET *17 0.25794
*CONN
*P io_in[24] I
*I *419:io_in[15] I *D user_proj_example
*CAP
1 io_in[24] 0.000655179
2 *419:io_in[15] 0.0364472
3 *17:19 0.0364472
4 *17:17 0.010127
5 *17:15 0.0103698
6 *17:9 0.00592839
7 *17:7 0.00634077
8 *17:9 *18:9 0.0478481
9 *17:9 *93:17 0.0638025
10 *17:15 *20:7 0.000297253
11 *17:17 *93:9 0.0396762
*RES
1 io_in[24] *17:7 9.25 
2 *17:7 *17:9 172.292 
3 *17:9 *17:15 10.596 
4 *17:15 *17:17 118.332 
5 *17:17 *17:19 4.5 
6 *17:19 *419:io_in[15] 259.198 
*END

*D_NET *18 0.251983
*CONN
*P io_in[25] I
*I *419:io_in[16] I *D user_proj_example
*CAP
1 io_in[25] 0.000634542
2 *419:io_in[16] 0.0365269
3 *18:19 0.0365269
4 *18:17 0.00167194
5 *18:15 0.00191205
6 *18:9 0.00391476
7 *18:7 0.00430918
8 *419:io_in[16] io_out[29] 3.73074e-05
9 *18:9 *19:9 0.0480415
10 *18:9 *56:17 0.00397603
11 *18:9 *93:17 0.00426096
12 *18:9 *95:17 0.00547262
13 *18:15 *21:7 7.16567e-05
14 *18:17 *55:9 0.0285912
15 *18:17 *58:9 0.00447336
16 *18:17 *94:9 0.023714
17 *17:9 *18:9 0.0478481
*RES
1 io_in[25] *18:7 9.098 
2 *18:7 *18:9 172.9 
3 *18:9 *18:15 10.292 
4 *18:15 *18:17 75.772 
5 *18:17 *18:19 4.5 
6 *18:19 *419:io_in[16] 259.654 
*END

*D_NET *19 0.221357
*CONN
*P io_in[26] I
*I *419:io_in[17] I *D user_proj_example
*CAP
1 io_in[26] 0.000627587
2 *419:io_in[17] 0.0366651
3 *19:19 0.0395366
4 *19:9 0.00480422
5 *19:7 0.00256021
6 *19:9 *56:17 0.0638044
7 *19:9 *57:15 0.00422729
8 *19:9 *95:17 0.00621648
9 *19:19 *22:7 0
10 *19:19 *56:9 0.0113411
11 *19:19 *59:9 0.00316763
12 *19:19 *95:15 0.000364523
13 *18:9 *19:9 0.0480415
*RES
1 io_in[26] *19:7 8.946 
2 *19:7 *19:9 173.508 
3 *19:9 *19:19 47.7 
4 *19:19 *419:io_in[17] 260.11 
*END

*D_NET *20 0.2071
*CONN
*P io_in[27] I
*I *419:io_in[18] I *D user_proj_example
*CAP
1 io_in[27] 0.000932017
2 *419:io_in[18] 0.0366186
3 *20:11 0.0366186
4 *20:9 0.00184537
5 *20:7 0.00277739
6 *20:9 *21:9 0.0043481
7 *20:9 *56:9 0.00324129
8 *20:9 *59:9 0.0286486
9 *20:9 *94:17 0.0312475
10 *20:9 *96:9 0.0605252
11 *17:15 *20:7 0.000297253
*RES
1 io_in[27] *20:7 10.01 
2 *20:7 *20:9 164.692 
3 *20:9 *20:11 4.5 
4 *20:11 *419:io_in[18] 259.958 
*END

*D_NET *21 0.168461
*CONN
*P io_in[28] I
*I *419:io_in[19] I *D user_proj_example
*CAP
1 io_in[28] 0.000896269
2 *419:io_in[19] 0.0366599
3 *21:11 0.0366599
4 *21:9 0.00167225
5 *21:7 0.00256852
6 *21:9 *57:15 0
7 *21:9 *59:9 0.0350606
8 *21:9 *60:9 0.0111795
9 *21:9 *94:17 0.00738208
10 *21:9 *95:17 0.0319622
11 *18:15 *21:7 7.16567e-05
12 *20:9 *21:9 0.0043481
*RES
1 io_in[28] *21:7 9.706 
2 *21:7 *21:9 122.74 
3 *21:9 *21:11 4.5 
4 *21:11 *419:io_in[19] 260.262 
*END

*D_NET *22 0.152742
*CONN
*P io_in[29] I
*I *419:io_in[20] I *D user_proj_example
*CAP
1 io_in[29] 0.00099974
2 *419:io_in[20] 0.0447079
3 *22:11 0.0447079
4 *22:9 0.00194734
5 *22:7 0.00294708
6 *22:9 *24:9 0.00110078
7 *22:9 *55:9 0.000187157
8 *22:9 *93:9 0.000152851
9 *22:9 *95:15 0.00118599
10 *22:9 *97:9 0.0292235
11 *22:9 *98:9 0.0255816
12 *19:19 *22:7 0
*RES
1 io_in[29] *22:7 10.618 
2 *22:7 *22:9 80.788 
3 *22:9 *22:11 4.5 
4 *22:11 *419:io_in[20] 259.35 
*END

*D_NET *24 0.0930611
*CONN
*P io_in[30] I
*I *419:io_in[21] I *D user_proj_example
*CAP
1 io_in[30] 0.0022152
2 *419:io_in[21] 0.0365222
3 *24:11 0.0365222
4 *24:9 0.0022152
5 *419:io_in[21] io_oeb[30] 0.000105995
6 *24:9 io_oeb[30] 3.76502e-05
7 *24:9 io_out[30] 0.00407238
8 *24:9 *58:9 0.000564488
9 *24:9 *59:9 0.00758368
10 *24:9 *60:9 0.000149374
11 *24:9 *97:9 0.00151262
12 *24:9 *98:9 0.000459353
13 *22:9 *24:9 0.00110078
*RES
1 io_in[30] *24:9 48.846 
2 *24:9 *24:11 4.5 
3 *24:11 *419:io_in[21] 259.958 
*END

*D_NET *25 0.075615
*CONN
*P io_in[31] I
*I *419:io_in[22] I *D user_proj_example
*CAP
1 io_in[31] 0.00136047
2 *419:io_in[22] 0.036447
3 *25:11 0.0378075
*RES
1 io_in[31] *25:11 18.234 
2 *25:11 *419:io_in[22] 259.198 
*END

*D_NET *26 0.0973797
*CONN
*P io_in[32] I
*I *419:io_in[23] I *D user_proj_example
*CAP
1 io_in[32] 0.0366054
2 *419:io_in[23] 0.000757888
3 *26:9 0.00406281
4 *26:5 0.0399103
5 *26:9 *27:9 0
6 *26:9 *28:9 0.000896822
7 *26:9 *64:9 0.0145342
8 *26:9 *65:9 0.000185434
9 *26:9 *66:9 0.000426872
*RES
1 io_in[32] *26:5 260.566 
2 *26:5 *26:9 49.72 
3 *26:9 *419:io_in[23] 9.402 
*END

*D_NET *27 0.125959
*CONN
*P io_in[33] I
*I *419:io_in[24] I *D user_proj_example
*CAP
1 io_in[33] 0.0367957
2 *419:io_in[24] 0.000613426
3 *27:9 0.00897319
4 *27:7 0.00835976
5 *27:5 0.0367957
6 *27:5 *107:15 0.000204192
7 *27:9 *419:io_in[28] 0.000456718
8 *27:9 *65:9 0.0318593
9 *27:9 *107:15 0.00190056
10 *26:9 *27:9 0
*RES
1 io_in[33] *27:5 261.63 
2 *27:5 *27:7 4.5 
3 *27:7 *27:9 87.172 
4 *27:9 *419:io_in[24] 8.338 
*END

*D_NET *28 0.175189
*CONN
*P io_in[34] I
*I *419:io_in[25] I *D user_proj_example
*CAP
1 io_in[34] 0.0368044
2 *419:io_in[25] 0.000682066
3 *28:9 0.00279126
4 *28:7 0.00210919
5 *28:5 0.0368044
6 *28:9 *65:9 0.0457195
7 *28:9 *66:9 0.0493811
8 *26:9 *28:9 0.000896822
*RES
1 io_in[34] *28:5 261.326 
2 *28:5 *28:7 4.5 
3 *28:7 *28:9 129.124 
4 *28:9 *419:io_in[25] 8.642 
*END

*D_NET *29 0.211569
*CONN
*P io_in[35] I
*I *419:io_in[26] I *D user_proj_example
*CAP
1 io_in[35] 0.036722
2 *419:io_in[26] 0.000750706
3 *29:9 0.00267932
4 *29:7 0.00192861
5 *29:5 0.036722
6 *29:9 *64:9 0.00051297
7 *29:9 *66:9 0.0631708
8 *29:9 *105:9 0.0690828
*RES
1 io_in[35] *29:5 261.022 
2 *29:5 *29:7 4.5 
3 *29:7 *29:9 171.076 
4 *29:9 *419:io_in[26] 8.946 
*END

*D_NET *30 0.194848
*CONN
*P io_in[36] I
*I *419:io_in[27] I *D user_proj_example
*CAP
1 io_in[36] 0.0366191
2 *419:io_in[27] 0.000853666
3 *30:9 0.0125767
4 *30:7 0.011723
5 *30:5 0.0366191
6 *30:9 *31:9 0
7 *30:9 *64:9 0.0089497
8 *30:9 *67:9 0.0806926
9 *30:9 *107:17 0.00681371
*RES
1 io_in[36] *30:5 260.566 
2 *30:5 *30:7 4.5 
3 *30:7 *30:9 213.028 
4 *30:9 *419:io_in[27] 9.402 
*END

*D_NET *31 0.210628
*CONN
*P io_in[37] I
*I *419:io_in[28] I *D user_proj_example
*CAP
1 io_in[37] 0.0364199
2 *419:io_in[28] 0.00179237
3 *31:9 0.0208615
4 *31:7 0.0190691
5 *31:5 0.0364199
6 *419:io_in[28] io_oeb[32] 0
7 *419:io_in[28] *107:15 6.74954e-06
8 *31:9 *64:9 3.40044e-05
9 *31:9 *107:17 0.0955682
10 *27:9 *419:io_in[28] 0.000456718
11 *30:9 *31:9 0
*RES
1 io_in[37] *31:5 259.502 
2 *31:5 *31:7 4.5 
3 *31:7 *31:9 250.116 
4 *31:9 *419:io_in[28] 24.482 
*END

*D_NET *38 0.148249
*CONN
*P io_in[9] I
*I *419:io_in[0] I *D user_proj_example
*CAP
1 io_in[9] 0.00136347
2 *419:io_in[0] 0.0359109
3 *38:11 0.0359109
4 *38:9 0.0195235
5 *38:7 0.020887
6 *38:9 *40:9 0.00049607
7 *38:9 *41:9 0.00120036
8 *38:9 *42:9 0.0266655
9 *38:9 *78:9 0
10 *38:9 *80:9 0.00240643
11 *2:9 *38:9 0
12 *3:9 *38:9 0.00206962
13 *4:9 *38:9 0.00181496
*RES
1 io_in[9] *38:7 11.682 
2 *38:7 *38:9 194.332 
3 *38:9 *38:11 4.5 
4 *38:11 *419:io_in[0] 255.854 
*END

*D_NET *40 0.254232
*CONN
*P io_oeb[10] O
*I *419:io_oeb[1] O *D user_proj_example
*CAP
1 io_oeb[10] 0.000943624
2 *419:io_oeb[1] 0.0360758
3 *40:9 0.00330736
4 *40:7 0.00236374
5 *40:5 0.0360758
6 *40:9 *78:9 0.0862308
7 *3:9 *40:9 0.0887391
8 *38:9 *40:9 0.00049607
*RES
1 *419:io_oeb[1] *40:5 256.766 
2 *40:5 *40:7 4.5 
3 *40:7 *40:9 224.884 
4 *40:9 io_oeb[10] 10.77 
*END

*D_NET *41 0.264621
*CONN
*P io_oeb[11] O
*I *419:io_oeb[2] O *D user_proj_example
*CAP
1 io_oeb[11] 0.000984899
2 *419:io_oeb[2] 0.0360482
3 *41:9 0.00436809
4 *41:7 0.00338319
5 *41:5 0.0360482
6 *3:9 *41:9 0.0862386
7 *4:9 *41:9 0.0963491
8 *38:9 *41:9 0.00120036
*RES
1 *419:io_oeb[2] *41:5 256.462 
2 *41:5 *41:7 4.5 
3 *41:7 *41:9 242.972 
4 *41:9 io_oeb[11] 11.074 
*END

*D_NET *42 0.253341
*CONN
*P io_oeb[12] O
*I *419:io_oeb[3] O *D user_proj_example
*CAP
1 io_oeb[12] 0.00107991
2 *419:io_oeb[3] 0.0359863
3 *42:9 0.0163423
4 *42:7 0.0152624
5 *42:5 0.0359863
6 *42:9 *80:9 0.101377
7 *6:9 *42:9 0.0206412
8 *38:9 *42:9 0.0266655
*RES
1 *419:io_oeb[3] *42:5 256.006 
2 *42:5 *42:7 4.5 
3 *42:7 *42:9 261.212 
4 *42:9 io_oeb[12] 11.53 
*END

*D_NET *43 0.29891
*CONN
*P io_oeb[13] O
*I *419:io_oeb[4] O *D user_proj_example
*CAP
1 io_oeb[13] 0.00102637
2 *419:io_oeb[4] 0.0360395
3 *43:9 0.0046206
4 *43:7 0.00359423
5 *43:5 0.0360395
6 *43:9 *80:9 0.010595
7 *5:9 *43:9 0.0986316
8 *6:9 *43:9 0.108363
*RES
1 *419:io_oeb[4] *43:5 256.158 
2 *43:5 *43:7 4.5 
3 *43:7 *43:9 279.452 
4 *43:9 io_oeb[13] 11.378 
*END

*D_NET *44 0.199064
*CONN
*P io_oeb[14] O
*I *419:io_oeb[5] O *D user_proj_example
*CAP
1 io_oeb[14] 0.0362628
2 *419:io_oeb[5] 0.000799175
3 *44:11 0.0362628
4 *44:9 0.0378475
5 *44:7 0.0386467
6 *44:9 *79:9 0.0492451
*RES
1 *419:io_oeb[5] *44:7 9.706 
2 *44:7 *44:9 297.692 
3 *44:9 *44:11 4.5 
4 *44:11 io_oeb[14] 257.83 
*END

*D_NET *45 0.253575
*CONN
*P io_oeb[15] O
*I *419:io_oeb[6] O *D user_proj_example
*CAP
1 io_oeb[15] 0.0429246
2 *419:io_oeb[6] 0.00077145
3 *45:11 0.0429246
4 *45:9 0.00364727
5 *45:7 0.00441872
6 *7:9 *45:9 0.0803034
7 *8:9 *45:9 0.0765344
8 *10:9 *45:9 0.0020508
*RES
1 *419:io_oeb[6] *45:7 9.706 
2 *45:7 *45:9 214.548 
3 *45:9 *45:11 4.5 
4 *45:11 io_oeb[15] 294.158 
*END

*D_NET *46 0.203958
*CONN
*P io_oeb[16] O
*I *419:io_oeb[7] O *D user_proj_example
*CAP
1 io_oeb[16] 0.0428937
2 *419:io_oeb[7] 0.000815177
3 *46:11 0.0428937
4 *46:9 0.00279977
5 *46:7 0.00361494
6 *8:9 *46:9 0.0558982
7 *9:9 *46:9 0.0520865
8 *10:9 *46:9 0.0029562
*RES
1 *419:io_oeb[7] *46:7 10.01 
2 *46:7 *46:9 155.724 
3 *46:9 *46:11 4.5 
4 *46:11 io_oeb[16] 293.854 
*END

*D_NET *47 0.136181
*CONN
*P io_oeb[17] O
*I *419:io_oeb[8] O *D user_proj_example
*CAP
1 io_oeb[17] 0.0428371
2 *419:io_oeb[8] 0.000858915
3 *47:11 0.0428371
4 *47:9 0.00773935
5 *47:7 0.00859826
6 *9:9 *47:9 0.0316587
7 *10:9 *47:9 0.00165178
*RES
1 *419:io_oeb[8] *47:7 10.314 
2 *47:7 *47:9 97.052 
3 *47:9 *47:11 4.5 
4 *47:11 io_oeb[17] 293.55 
*END

*D_NET *48 0.107513
*CONN
*P io_oeb[18] O
*I *419:io_oeb[9] O *D user_proj_example
*CAP
1 io_oeb[18] 0.000999175
2 *419:io_oeb[9] 0.00110246
3 *48:19 0.00372933
4 *48:13 0.0444861
5 *48:11 0.0428584
6 *48:19 *86:9 0.0115862
7 *11:11 *48:19 0.00275099
*RES
1 *419:io_oeb[9] *48:11 16.562 
2 *48:11 *48:13 286.444 
3 *48:13 *48:19 45.708 
4 *48:19 io_oeb[18] 6.878 
*END

*D_NET *49 0.0953128
*CONN
*P io_oeb[19] O
*I *419:io_oeb[10] O *D user_proj_example
*CAP
1 io_oeb[19] 0.00127065
2 *419:io_oeb[10] 0.00284329
3 *49:13 0.0432806
4 *49:11 0.0448532
5 *419:io_in[11] *49:11 0.00306511
*RES
1 *419:io_oeb[10] *49:11 32.066 
2 *49:11 *49:13 288.268 
3 *49:13 io_oeb[19] 17.778 
*END

*D_NET *51 0.143775
*CONN
*P io_oeb[20] O
*I *419:io_oeb[11] O *D user_proj_example
*CAP
1 io_oeb[20] 0.0429465
2 *419:io_oeb[11] 0.000736759
3 *51:11 0.0429465
4 *51:9 0.00147893
5 *51:7 0.00221569
6 *51:9 *53:9 0.0014485
7 *51:9 *89:9 0.0206248
8 *51:9 *91:9 0.00102301
9 *14:9 *51:9 0.0286574
10 *15:9 *51:9 0.000162609
11 *16:9 *51:9 0.00153391
*RES
1 *419:io_oeb[11] *51:7 9.554 
2 *51:7 *51:9 79.724 
3 *51:9 *51:11 4.5 
4 *51:11 io_oeb[20] 294.31 
*END

*D_NET *52 0.191799
*CONN
*P io_oeb[21] O
*I *419:io_oeb[12] O *D user_proj_example
*CAP
1 io_oeb[21] 0.0427384
2 *419:io_oeb[12] 0.000906428
3 *52:11 0.0427384
4 *52:9 0.00268651
5 *52:7 0.00359294
6 *52:9 *89:9 0.000887018
7 *52:9 *90:9 0.0450946
8 *15:9 *52:9 0.0531546