*SPEF "ieee 1481-1999"
*DESIGN "user_project_wrapper"
*DATE "11:11:11 Fri 11 11, 1111"
*VENDOR "OpenRCX"
*PROGRAM "Parallel Extraction"
*VERSION "1.0"
*DESIGN_FLOW "NAME_SCOPE LOCAL" "PIN_CAP NONE"
*DIVIDER /
*DELIMITER :
*BUS_DELIMITER []
*T_UNIT 1 NS
*C_UNIT 1 PF
*R_UNIT 1 OHM
*L_UNIT 1 HENRY

*NAME_MAP
*1 io_in[0]
*2 io_in[10]
*3 io_in[11]
*4 io_in[12]
*5 io_in[13]
*6 io_in[14]
*7 io_in[15]
*8 io_in[16]
*9 io_in[17]
*10 io_in[18]
*11 io_in[19]
*12 io_in[1]
*13 io_in[20]
*14 io_in[21]
*15 io_in[22]
*16 io_in[23]
*17 io_in[24]
*18 io_in[25]
*19 io_in[26]
*20 io_in[27]
*21 io_in[28]
*22 io_in[29]
*23 io_in[2]
*24 io_in[30]
*25 io_in[31]
*26 io_in[32]
*27 io_in[33]
*28 io_in[34]
*29 io_in[35]
*30 io_in[36]
*31 io_in[37]
*32 io_in[3]
*33 io_in[4]
*34 io_in[5]
*35 io_in[6]
*36 io_in[7]
*37 io_in[8]
*38 io_in[9]
*39 io_oeb[0]
*40 io_oeb[10]
*41 io_oeb[11]
*42 io_oeb[12]
*43 io_oeb[13]
*44 io_oeb[14]
*45 io_oeb[15]
*46 io_oeb[16]
*47 io_oeb[17]
*48 io_oeb[18]
*49 io_oeb[19]
*50 io_oeb[1]
*51 io_oeb[20]
*52 io_oeb[21]
*53 io_oeb[22]
*54 io_oeb[23]
*55 io_oeb[24]
*56 io_oeb[25]
*57 io_oeb[26]
*58 io_oeb[27]
*59 io_oeb[28]
*60 io_oeb[29]
*61 io_oeb[2]
*62 io_oeb[30]
*63 io_oeb[31]
*64 io_oeb[32]
*65 io_oeb[33]
*66 io_oeb[34]
*67 io_oeb[35]
*68 io_oeb[36]
*69 io_oeb[37]
*70 io_oeb[3]
*71 io_oeb[4]
*72 io_oeb[5]
*73 io_oeb[6]
*74 io_oeb[7]
*75 io_oeb[8]
*76 io_oeb[9]
*77 io_out[0]
*78 io_out[10]
*79 io_out[11]
*80 io_out[12]
*81 io_out[13]
*82 io_out[14]
*83 io_out[15]
*84 io_out[16]
*85 io_out[17]
*86 io_out[18]
*87 io_out[19]
*88 io_out[1]
*89 io_out[20]
*90 io_out[21]
*91 io_out[22]
*92 io_out[23]
*93 io_out[24]
*94 io_out[25]
*95 io_out[26]
*96 io_out[27]
*97 io_out[28]
*98 io_out[29]
*99 io_out[2]
*100 io_out[30]
*101 io_out[31]
*102 io_out[32]
*103 io_out[33]
*104 io_out[34]
*105 io_out[35]
*106 io_out[36]
*107 io_out[37]
*108 io_out[3]
*109 io_out[4]
*110 io_out[5]
*111 io_out[6]
*112 io_out[7]
*113 io_out[8]
*114 io_out[9]
*115 la_data_in[0]
*116 la_data_in[10]
*117 la_data_in[11]
*118 la_data_in[12]
*119 la_data_in[13]
*120 la_data_in[14]
*121 la_data_in[15]
*122 la_data_in[16]
*123 la_data_in[17]
*124 la_data_in[18]
*125 la_data_in[19]
*126 la_data_in[1]
*127 la_data_in[20]
*128 la_data_in[21]
*129 la_data_in[22]
*130 la_data_in[23]
*131 la_data_in[24]
*132 la_data_in[25]
*133 la_data_in[26]
*134 la_data_in[27]
*135 la_data_in[28]
*136 la_data_in[29]
*137 la_data_in[2]
*138 la_data_in[30]
*139 la_data_in[31]
*140 la_data_in[32]
*141 la_data_in[33]
*142 la_data_in[34]
*143 la_data_in[35]
*144 la_data_in[36]
*145 la_data_in[37]
*146 la_data_in[38]
*147 la_data_in[39]
*148 la_data_in[3]
*149 la_data_in[40]
*150 la_data_in[41]
*151 la_data_in[42]
*152 la_data_in[43]
*153 la_data_in[44]
*154 la_data_in[45]
*155 la_data_in[46]
*156 la_data_in[47]
*157 la_data_in[48]
*158 la_data_in[49]
*159 la_data_in[4]
*160 la_data_in[50]
*161 la_data_in[51]
*162 la_data_in[52]
*163 la_data_in[53]
*164 la_data_in[54]
*165 la_data_in[55]
*166 la_data_in[56]
*167 la_data_in[57]
*168 la_data_in[58]
*169 la_data_in[59]
*170 la_data_in[5]
*171 la_data_in[60]
*172 la_data_in[61]
*173 la_data_in[62]
*174 la_data_in[63]
*175 la_data_in[6]
*176 la_data_in[7]
*177 la_data_in[8]
*178 la_data_in[9]
*179 la_data_out[0]
*180 la_data_out[10]
*181 la_data_out[11]
*182 la_data_out[12]
*183 la_data_out[13]
*184 la_data_out[14]
*185 la_data_out[15]
*186 la_data_out[16]
*187 la_data_out[17]
*188 la_data_out[18]
*189 la_data_out[19]
*190 la_data_out[1]
*191 la_data_out[20]
*192 la_data_out[21]
*193 la_data_out[22]
*194 la_data_out[23]
*195 la_data_out[24]
*196 la_data_out[25]
*197 la_data_out[26]
*198 la_data_out[27]
*199 la_data_out[28]
*200 la_data_out[29]
*201 la_data_out[2]
*202 la_data_out[30]
*203 la_data_out[31]
*204 la_data_out[32]
*205 la_data_out[33]
*206 la_data_out[34]
*207 la_data_out[35]
*208 la_data_out[36]
*209 la_data_out[37]
*210 la_data_out[38]
*211 la_data_out[39]
*212 la_data_out[3]
*213 la_data_out[40]
*214 la_data_out[41]
*215 la_data_out[42]
*216 la_data_out[43]
*217 la_data_out[44]
*218 la_data_out[45]
*219 la_data_out[46]
*220 la_data_out[47]
*221 la_data_out[48]
*222 la_data_out[49]
*223 la_data_out[4]
*224 la_data_out[50]
*225 la_data_out[51]
*226 la_data_out[52]
*227 la_data_out[53]
*228 la_data_out[54]
*229 la_data_out[55]
*230 la_data_out[56]
*231 la_data_out[57]
*232 la_data_out[58]
*233 la_data_out[59]
*234 la_data_out[5]
*235 la_data_out[60]
*236 la_data_out[61]
*237 la_data_out[62]
*238 la_data_out[63]
*239 la_data_out[6]
*240 la_data_out[7]
*241 la_data_out[8]
*242 la_data_out[9]
*243 la_oenb[0]
*244 la_oenb[10]
*245 la_oenb[11]
*246 la_oenb[12]
*247 la_oenb[13]
*248 la_oenb[14]
*249 la_oenb[15]
*250 la_oenb[16]
*251 la_oenb[17]
*252 la_oenb[18]
*253 la_oenb[19]
*254 la_oenb[1]
*255 la_oenb[20]
*256 la_oenb[21]
*257 la_oenb[22]
*258 la_oenb[23]
*259 la_oenb[24]
*260 la_oenb[25]
*261 la_oenb[26]
*262 la_oenb[27]
*263 la_oenb[28]
*264 la_oenb[29]
*265 la_oenb[2]
*266 la_oenb[30]
*267 la_oenb[31]
*268 la_oenb[32]
*269 la_oenb[33]
*270 la_oenb[34]
*271 la_oenb[35]
*272 la_oenb[36]
*273 la_oenb[37]
*274 la_oenb[38]
*275 la_oenb[39]
*276 la_oenb[3]
*277 la_oenb[40]
*278 la_oenb[41]
*279 la_oenb[42]
*280 la_oenb[43]
*281 la_oenb[44]
*282 la_oenb[45]
*283 la_oenb[46]
*284 la_oenb[47]
*285 la_oenb[48]
*286 la_oenb[49]
*287 la_oenb[4]
*288 la_oenb[50]
*289 la_oenb[51]
*290 la_oenb[52]
*291 la_oenb[53]
*292 la_oenb[54]
*293 la_oenb[55]
*294 la_oenb[56]
*295 la_oenb[57]
*296 la_oenb[58]
*297 la_oenb[59]
*298 la_oenb[5]
*299 la_oenb[60]
*300 la_oenb[61]
*301 la_oenb[62]
*302 la_oenb[63]
*303 la_oenb[6]
*304 la_oenb[7]
*305 la_oenb[8]
*306 la_oenb[9]
*307 user_clock2
*308 user_irq[0]
*309 user_irq[1]
*310 user_irq[2]
*313 wb_clk_i
*314 wb_rst_i
*315 wbs_ack_o
*316 wbs_adr_i[0]
*317 wbs_adr_i[10]
*318 wbs_adr_i[11]
*319 wbs_adr_i[12]
*320 wbs_adr_i[13]
*321 wbs_adr_i[14]
*322 wbs_adr_i[15]
*323 wbs_adr_i[16]
*324 wbs_adr_i[17]
*325 wbs_adr_i[18]
*326 wbs_adr_i[19]
*327 wbs_adr_i[1]
*328 wbs_adr_i[20]
*329 wbs_adr_i[21]
*330 wbs_adr_i[22]
*331 wbs_adr_i[23]
*332 wbs_adr_i[24]
*333 wbs_adr_i[25]
*334 wbs_adr_i[26]
*335 wbs_adr_i[27]
*336 wbs_adr_i[28]
*337 wbs_adr_i[29]
*338 wbs_adr_i[2]
*339 wbs_adr_i[30]
*340 wbs_adr_i[31]
*341 wbs_adr_i[3]
*342 wbs_adr_i[4]
*343 wbs_adr_i[5]
*344 wbs_adr_i[6]
*345 wbs_adr_i[7]
*346 wbs_adr_i[8]
*347 wbs_adr_i[9]
*348 wbs_cyc_i
*349 wbs_dat_i[0]
*350 wbs_dat_i[10]
*351 wbs_dat_i[11]
*352 wbs_dat_i[12]
*353 wbs_dat_i[13]
*354 wbs_dat_i[14]
*355 wbs_dat_i[15]
*356 wbs_dat_i[16]
*357 wbs_dat_i[17]
*358 wbs_dat_i[18]
*359 wbs_dat_i[19]
*360 wbs_dat_i[1]
*361 wbs_dat_i[20]
*362 wbs_dat_i[21]
*363 wbs_dat_i[22]
*364 wbs_dat_i[23]
*365 wbs_dat_i[24]
*366 wbs_dat_i[25]
*367 wbs_dat_i[26]
*368 wbs_dat_i[27]
*369 wbs_dat_i[28]
*370 wbs_dat_i[29]
*371 wbs_dat_i[2]
*372 wbs_dat_i[30]
*373 wbs_dat_i[31]
*374 wbs_dat_i[3]
*375 wbs_dat_i[4]
*376 wbs_dat_i[5]
*377 wbs_dat_i[6]
*378 wbs_dat_i[7]
*379 wbs_dat_i[8]
*380 wbs_dat_i[9]
*381 wbs_dat_o[0]
*382 wbs_dat_o[10]
*383 wbs_dat_o[11]
*384 wbs_dat_o[12]
*385 wbs_dat_o[13]
*386 wbs_dat_o[14]
*387 wbs_dat_o[15]
*388 wbs_dat_o[16]
*389 wbs_dat_o[17]
*390 wbs_dat_o[18]
*391 wbs_dat_o[19]
*392 wbs_dat_o[1]
*393 wbs_dat_o[20]
*394 wbs_dat_o[21]
*395 wbs_dat_o[22]
*396 wbs_dat_o[23]
*397 wbs_dat_o[24]
*398 wbs_dat_o[25]
*399 wbs_dat_o[26]
*400 wbs_dat_o[27]
*401 wbs_dat_o[28]
*402 wbs_dat_o[29]
*403 wbs_dat_o[2]
*404 wbs_dat_o[30]
*405 wbs_dat_o[31]
*406 wbs_dat_o[3]
*407 wbs_dat_o[4]
*408 wbs_dat_o[5]
*409 wbs_dat_o[6]
*410 wbs_dat_o[7]
*411 wbs_dat_o[8]
*412 wbs_dat_o[9]
*413 wbs_sel_i[0]
*414 wbs_sel_i[1]
*415 wbs_sel_i[2]
*416 wbs_sel_i[3]
*417 wbs_stb_i
*418 wbs_we_i
*419 mprj

*PORTS
io_in[0] I
io_in[10] I
io_in[11] I
io_in[12] I
io_in[13] I
io_in[14] I
io_in[15] I
io_in[16] I
io_in[17] I
io_in[18] I
io_in[19] I
io_in[1] I
io_in[20] I
io_in[21] I
io_in[22] I
io_in[23] I
io_in[24] I
io_in[25] I
io_in[26] I
io_in[27] I
io_in[28] I
io_in[29] I
io_in[2] I
io_in[30] I
io_in[31] I
io_in[32] I
io_in[33] I
io_in[34] I
io_in[35] I
io_in[36] I
io_in[37] I
io_in[3] I
io_in[4] I
io_in[5] I
io_in[6] I
io_in[7] I
io_in[8] I
io_in[9] I
io_oeb[0] O
io_oeb[10] O
io_oeb[11] O
io_oeb[12] O
io_oeb[13] O
io_oeb[14] O
io_oeb[15] O
io_oeb[16] O
io_oeb[17] O
io_oeb[18] O
io_oeb[19] O
io_oeb[1] O
io_oeb[20] O
io_oeb[21] O
io_oeb[22] O
io_oeb[23] O
io_oeb[24] O
io_oeb[25] O
io_oeb[26] O
io_oeb[27] O
io_oeb[28] O
io_oeb[29] O
io_oeb[2] O
io_oeb[30] O
io_oeb[31] O
io_oeb[32] O
io_oeb[33] O
io_oeb[34] O
io_oeb[35] O
io_oeb[36] O
io_oeb[37] O
io_oeb[3] O
io_oeb[4] O
io_oeb[5] O
io_oeb[6] O
io_oeb[7] O
io_oeb[8] O
io_oeb[9] O
io_out[0] O
io_out[10] O
io_out[11] O
io_out[12] O
io_out[13] O
io_out[14] O
io_out[15] O
io_out[16] O
io_out[17] O
io_out[18] O
io_out[19] O
io_out[1] O
io_out[20] O
io_out[21] O
io_out[22] O
io_out[23] O
io_out[24] O
io_out[25] O
io_out[26] O
io_out[27] O
io_out[28] O
io_out[29] O
io_out[2] O
io_out[30] O
io_out[31] O
io_out[32] O
io_out[33] O
io_out[34] O
io_out[35] O
io_out[36] O
io_out[37] O
io_out[3] O
io_out[4] O
io_out[5] O
io_out[6] O
io_out[7] O
io_out[8] O
io_out[9] O
la_data_in[0] I
la_data_in[10] I
la_data_in[11] I
la_data_in[12] I
la_data_in[13] I
la_data_in[14] I
la_data_in[15] I
la_data_in[16] I
la_data_in[17] I
la_data_in[18] I
la_data_in[19] I
la_data_in[1] I
la_data_in[20] I
la_data_in[21] I
la_data_in[22] I
la_data_in[23] I
la_data_in[24] I
la_data_in[25] I
la_data_in[26] I
la_data_in[27] I
la_data_in[28] I
la_data_in[29] I
la_data_in[2] I
la_data_in[30] I
la_data_in[31] I
la_data_in[32] I
la_data_in[33] I
la_data_in[34] I
la_data_in[35] I
la_data_in[36] I
la_data_in[37] I
la_data_in[38] I
la_data_in[39] I
la_data_in[3] I
la_data_in[40] I
la_data_in[41] I
la_data_in[42] I
la_data_in[43] I
la_data_in[44] I
la_data_in[45] I
la_data_in[46] I
la_data_in[47] I
la_data_in[48] I
la_data_in[49] I
la_data_in[4] I
la_data_in[50] I
la_data_in[51] I
la_data_in[52] I
la_data_in[53] I
la_data_in[54] I
la_data_in[55] I
la_data_in[56] I
la_data_in[57] I
la_data_in[58] I
la_data_in[59] I
la_data_in[5] I
la_data_in[60] I
la_data_in[61] I
la_data_in[62] I
la_data_in[63] I
la_data_in[6] I
la_data_in[7] I
la_data_in[8] I
la_data_in[9] I
la_data_out[0] O
la_data_out[10] O
la_data_out[11] O
la_data_out[12] O
la_data_out[13] O
la_data_out[14] O
la_data_out[15] O
la_data_out[16] O
la_data_out[17] O
la_data_out[18] O
la_data_out[19] O
la_data_out[1] O
la_data_out[20] O
la_data_out[21] O
la_data_out[22] O
la_data_out[23] O
la_data_out[24] O
la_data_out[25] O
la_data_out[26] O
la_data_out[27] O
la_data_out[28] O
la_data_out[29] O
la_data_out[2] O
la_data_out[30] O
la_data_out[31] O
la_data_out[32] O
la_data_out[33] O
la_data_out[34] O
la_data_out[35] O
la_data_out[36] O
la_data_out[37] O
la_data_out[38] O
la_data_out[39] O
la_data_out[3] O
la_data_out[40] O
la_data_out[41] O
la_data_out[42] O
la_data_out[43] O
la_data_out[44] O
la_data_out[45] O
la_data_out[46] O
la_data_out[47] O
la_data_out[48] O
la_data_out[49] O
la_data_out[4] O
la_data_out[50] O
la_data_out[51] O
la_data_out[52] O
la_data_out[53] O
la_data_out[54] O
la_data_out[55] O
la_data_out[56] O
la_data_out[57] O
la_data_out[58] O
la_data_out[59] O
la_data_out[5] O
la_data_out[60] O
la_data_out[61] O
la_data_out[62] O
la_data_out[63] O
la_data_out[6] O
la_data_out[7] O
la_data_out[8] O
la_data_out[9] O
la_oenb[0] I
la_oenb[10] I
la_oenb[11] I
la_oenb[12] I
la_oenb[13] I
la_oenb[14] I
la_oenb[15] I
la_oenb[16] I
la_oenb[17] I
la_oenb[18] I
la_oenb[19] I
la_oenb[1] I
la_oenb[20] I
la_oenb[21] I
la_oenb[22] I
la_oenb[23] I
la_oenb[24] I
la_oenb[25] I
la_oenb[26] I
la_oenb[27] I
la_oenb[28] I
la_oenb[29] I
la_oenb[2] I
la_oenb[30] I
la_oenb[31] I
la_oenb[32] I
la_oenb[33] I
la_oenb[34] I
la_oenb[35] I
la_oenb[36] I
la_oenb[37] I
la_oenb[38] I
la_oenb[39] I
la_oenb[3] I
la_oenb[40] I
la_oenb[41] I
la_oenb[42] I
la_oenb[43] I
la_oenb[44] I
la_oenb[45] I
la_oenb[46] I
la_oenb[47] I
la_oenb[48] I
la_oenb[49] I
la_oenb[4] I
la_oenb[50] I
la_oenb[51] I
la_oenb[52] I
la_oenb[53] I
la_oenb[54] I
la_oenb[55] I
la_oenb[56] I
la_oenb[57] I
la_oenb[58] I
la_oenb[59] I
la_oenb[5] I
la_oenb[60] I
la_oenb[61] I
la_oenb[62] I
la_oenb[63] I
la_oenb[6] I
la_oenb[7] I
la_oenb[8] I
la_oenb[9] I
user_clock2 I
user_irq[0] O
user_irq[1] O
user_irq[2] O
wb_clk_i I
wb_rst_i I
wbs_ack_o O
wbs_adr_i[0] I
wbs_adr_i[10] I
wbs_adr_i[11] I
wbs_adr_i[12] I
wbs_adr_i[13] I
wbs_adr_i[14] I
wbs_adr_i[15] I
wbs_adr_i[16] I
wbs_adr_i[17] I
wbs_adr_i[18] I
wbs_adr_i[19] I
wbs_adr_i[1] I
wbs_adr_i[20] I
wbs_adr_i[21] I
wbs_adr_i[22] I
wbs_adr_i[23] I
wbs_adr_i[24] I
wbs_adr_i[25] I
wbs_adr_i[26] I
wbs_adr_i[27] I
wbs_adr_i[28] I
wbs_adr_i[29] I
wbs_adr_i[2] I
wbs_adr_i[30] I
wbs_adr_i[31] I
wbs_adr_i[3] I
wbs_adr_i[4] I
wbs_adr_i[5] I
wbs_adr_i[6] I
wbs_adr_i[7] I
wbs_adr_i[8] I
wbs_adr_i[9] I
wbs_cyc_i I
wbs_dat_i[0] I
wbs_dat_i[10] I
wbs_dat_i[11] I
wbs_dat_i[12] I
wbs_dat_i[13] I
wbs_dat_i[14] I
wbs_dat_i[15] I
wbs_dat_i[16] I
wbs_dat_i[17] I
wbs_dat_i[18] I
wbs_dat_i[19] I
wbs_dat_i[1] I
wbs_dat_i[20] I
wbs_dat_i[21] I
wbs_dat_i[22] I
wbs_dat_i[23] I
wbs_dat_i[24] I
wbs_dat_i[25] I
wbs_dat_i[26] I
wbs_dat_i[27] I
wbs_dat_i[28] I
wbs_dat_i[29] I
wbs_dat_i[2] I
wbs_dat_i[30] I
wbs_dat_i[31] I
wbs_dat_i[3] I
wbs_dat_i[4] I
wbs_dat_i[5] I
wbs_dat_i[6] I
wbs_dat_i[7] I
wbs_dat_i[8] I
wbs_dat_i[9] I
wbs_dat_o[0] O
wbs_dat_o[10] O
wbs_dat_o[11] O
wbs_dat_o[12] O
wbs_dat_o[13] O
wbs_dat_o[14] O
wbs_dat_o[15] O
wbs_dat_o[16] O
wbs_dat_o[17] O
wbs_dat_o[18] O
wbs_dat_o[19] O
wbs_dat_o[1] O
wbs_dat_o[20] O
wbs_dat_o[21] O
wbs_dat_o[22] O
wbs_dat_o[23] O
wbs_dat_o[24] O
wbs_dat_o[25] O
wbs_dat_o[26] O
wbs_dat_o[27] O
wbs_dat_o[28] O
wbs_dat_o[29] O
wbs_dat_o[2] O
wbs_dat_o[30] O
wbs_dat_o[31] O
wbs_dat_o[3] O
wbs_dat_o[4] O
wbs_dat_o[5] O
wbs_dat_o[6] O
wbs_dat_o[7] O
wbs_dat_o[8] O
wbs_dat_o[9] O
wbs_sel_i[0] I
wbs_sel_i[1] I
wbs_sel_i[2] I
wbs_sel_i[3] I
wbs_stb_i I
wbs_we_i I

*D_NET *2 0.239865
*CONN
*P io_in[10] I
*I *419:io_in[1] I *D user_proj_example
*CAP
1 io_in[10] 0.00142323
2 *419:io_in[1] 0.039939
3 *2:11 0.039939
4 *2:9 0.0101635
5 *2:7 0.0115867
6 *2:9 *3:9 0.00104443
7 *2:9 *4:9 0.00148461
8 *2:9 *38:9 0.0869489
9 *2:9 *40:9 0
10 *2:9 *41:9 0.00108177
11 *2:9 *42:9 0.0145876
12 *2:9 *78:9 0
13 *2:9 *80:9 0.0018777
14 *2:9 *82:9 0.029788
*RES
1 io_in[10] *2:7 14.328 
2 *2:7 *2:9 290.888 
3 *2:9 *2:11 4.5 
4 *2:11 *419:io_in[1] 349.908 
*END

*D_NET *3 0.341231
*CONN
*P io_in[11] I
*I *419:io_in[2] I *D user_proj_example
*CAP
1 io_in[11] 0.00107771
2 *419:io_in[2] 0.0509708
3 *3:11 0.0509708
4 *3:9 0.0036652
5 *3:7 0.00474291
6 *3:9 *40:9 0.116195
7 *3:9 *41:9 0.112564
8 *2:9 *3:9 0.00104443
*RES
1 io_in[11] *3:7 13.08 
2 *3:7 *3:9 314.6 
3 *3:9 *3:11 4.5 
4 *3:11 *419:io_in[2] 351.156 
*END

*D_NET *4 0.343612
*CONN
*P io_in[12] I
*I *419:io_in[3] I *D user_proj_example
*CAP
1 io_in[12] 0.00112292
2 *419:io_in[3] 0.0400724
3 *4:11 0.0400724
4 *4:9 0.00265297
5 *4:7 0.0037759
6 *4:9 *41:9 0.125696
7 *4:9 *80:9 0.128735
8 *2:9 *4:9 0.00148461
*RES
1 io_in[12] *4:7 13.496 
2 *4:7 *4:9 338.312 
3 *4:9 *4:11 4.5 
4 *4:11 *419:io_in[3] 350.74 
*END

*D_NET *5 0.272812
*CONN
*P io_in[13] I
*I *419:io_in[4] I *D user_proj_example
*CAP
1 io_in[13] 0.00114566
2 *419:io_in[4] 0.0400808
3 *5:11 0.0400808
4 *5:9 0.0235871
5 *5:7 0.0247328
6 *5:9 *43:9 0.128347
7 *5:9 *80:9 0.0148377
*RES
1 io_in[13] *5:7 13.704 
2 *5:7 *5:9 362.024 
3 *5:9 *5:11 4.5 
4 *5:11 *419:io_in[4] 350.532 
*END

*D_NET *6 0.305693
*CONN
*P io_in[14] I
*I *419:io_in[5] I *D user_proj_example
*CAP
1 io_in[14] 0.00146891
2 *419:io_in[5] 0.0400263
3 *6:11 0.0400263
4 *6:9 0.0244723
5 *6:7 0.0259412
6 *6:9 *42:9 0.00113935
7 *6:9 *43:9 0.141031
8 *6:9 *82:9 0.0315869
*RES
1 io_in[14] *6:7 14.12 
2 *6:7 *6:9 385.736 
3 *6:9 *6:11 4.5 
4 *6:11 *419:io_in[5] 350.116 
*END

*D_NET *7 0.250856
*CONN
*P io_in[15] I
*I *419:io_in[6] I *D user_proj_example
*CAP
1 io_in[15] 0.0473441
2 *419:io_in[6] 0.000663821
3 *7:9 0.0253958
4 *7:7 0.024732
5 *7:5 0.0473441
6 *7:9 *45:11 0.105376
*RES
1 io_in[15] *7:5 399.62 
2 *7:5 *7:7 4.5 
3 *7:7 *7:9 346.632 
4 *7:9 *419:io_in[6] 10.064 
*END

*D_NET *8 0.282506
*CONN
*P io_in[16] I
*I *419:io_in[7] I *D user_proj_example
*CAP
1 io_in[16] 0.047316
2 *419:io_in[7] 0.000829659
3 *8:9 0.0061594
4 *8:7 0.00532974
5 *8:5 0.047316
6 *8:9 *10:9 0.0022762
7 *8:9 *45:11 0.100333
8 *8:9 *46:11 0.0729462
*RES
1 io_in[16] *8:5 399.204 
2 *8:5 *8:7 4.5 
3 *8:7 *8:9 265.304 
4 *8:9 *419:io_in[7] 11.312 
*END

*D_NET *9 0.2173
*CONN
*P io_in[17] I
*I *419:io_in[8] I *D user_proj_example
*CAP
1 io_in[17] 0.0472879
2 *419:io_in[8] 0.000805415
3 *9:9 0.00618936
4 *9:7 0.00538395
5 *9:5 0.0472879
6 *9:9 *10:9 0.00127856
7 *9:9 *46:11 0.0677649
8 *9:9 *47:11 0.0413016
*RES
1 io_in[17] *9:5 398.788 
2 *9:5 *9:7 4.5 
3 *9:7 *9:9 185.432 
4 *9:9 *419:io_in[8] 11.104 
*END

*D_NET *10 0.124393
*CONN
*P io_in[18] I
*I *419:io_in[9] I *D user_proj_example
*CAP
1 io_in[18] 0.0474054
2 *419:io_in[9] 0.000809284
3 *10:9 0.00936887
4 *10:7 0.00855959
5 *10:5 0.0474054
6 *10:9 *45:11 0.00236276
7 *10:9 *46:11 0.00319082
8 *10:9 *47:11 0.00173664
9 *8:9 *10:9 0.0022762
10 *9:9 *10:9 0.00127856
*RES
1 io_in[18] *10:5 399.62 
2 *10:5 *10:7 4.5 
3 *10:7 *10:9 103.896 
4 *10:9 *419:io_in[9] 11.312 
*END

*D_NET *11 0.104964
*CONN
*P io_in[19] I
*I *419:io_in[10] I *D user_proj_example
*CAP
1 io_in[19] 0.00354767
2 *419:io_in[10] 0.00235834
3 *11:13 0.0468323
4 *11:11 0.0480216
5 *11:11 *48:15 0.00420462
*RES
1 io_in[19] *11:11 43.476 
2 *11:11 *11:13 376.064 
3 *11:13 *419:io_in[10] 19.916 
*END

*D_NET *13 0.114552
*CONN
*P io_in[20] I
*I *419:io_in[11] I *D user_proj_example
*CAP
1 io_in[20] 0.00449588
2 *419:io_in[11] 0.00255753
3 *13:13 0.0487467
4 *13:11 0.050685
5 *419:io_in[11] *49:13 0.00361558
6 *419:io_in[11] *89:11 0.00445082
*RES
1 io_in[20] *13:11 47.844 
2 *13:11 *13:13 390.104 
3 *13:13 *419:io_in[11] 40.668 
*END

*D_NET *14 0.162293
*CONN
*P io_in[21] I
*I *419:io_in[12] I *D user_proj_example
*CAP
1 io_in[21] 0.04745
2 *419:io_in[12] 0.000712308
3 *14:9 0.00895147
4 *14:7 0.00823917
5 *14:5 0.04745
6 *14:9 *16:9 0.000578613
7 *14:9 *51:11 0.0375254
8 *14:9 *54:13 0.00914563
9 *14:9 *92:11 0.00223994
*RES
1 io_in[21] *14:5 399.828 
2 *14:5 *14:7 4.5 
3 *14:7 *14:9 135.512 
4 *14:9 *419:io_in[12] 10.48 
*END

*D_NET *15 0.253823
*CONN
*P io_in[22] I
*I *419:io_in[13] I *D user_proj_example
*CAP
1 io_in[22] 0.0471414
2 *419:io_in[13] 0.000967419
3 *15:9 0.0041953
4 *15:7 0.00322788
5 *15:5 0.0471414
6 *15:9 *51:11 0.00017581
7 *15:9 *52:11 0.0695716
8 *15:9 *89:11 0.000894617
9 *15:9 *91:11 0.0805072
*RES
1 io_in[22] *15:5 398.58 
2 *15:5 *15:7 4.5 
3 *15:7 *15:9 215.592 
4 *15:9 *419:io_in[13] 12.144 
*END

*D_NET *16 0.319021
*CONN
*P io_in[23] I
*I *419:io_in[14] I *D user_proj_example
*CAP
1 io_in[23] 0.0472141
2 *419:io_in[14] 0.000753075
3 *16:9 0.00390421
4 *16:7 0.00315113
5 *16:5 0.0472141
6 *16:9 *51:11 0.00178713
7 *16:9 *53:11 0.102069
8 *16:9 *92:11 0.11235
9 *14:9 *16:9 0.000578613
*RES
1 io_in[23] *16:5 399.204 
2 *16:5 *16:7 4.5 
3 *16:7 *16:9 297.128 
4 *16:9 *419:io_in[14] 10.48 
*END

*D_NET *17 0.31693
*CONN
*P io_in[24] I
*I *419:io_in[15] I *D user_proj_example
*CAP
1 io_in[24] 0.000722589
2 *419:io_in[15] 0.0405236
3 *17:19 0.0405236
4 *17:17 0.0111363
5 *17:15 0.0114379
6 *17:9 0.00678225
7 *17:7 0.00720324
8 *17:9 *18:9 0.0629263
9 *17:9 *93:17 0.0839077
10 *17:15 *20:7 0.00039309
11 *17:17 *93:9 0.051374
*RES
1 io_in[24] *17:7 11 
2 *17:7 *17:9 235.768 
3 *17:9 *17:15 11.184 
4 *17:15 *17:17 159.432 
5 *17:17 *17:19 4.5 
6 *17:19 *419:io_in[15] 354.692 
*END

*D_NET *18 0.309854
*CONN
*P io_in[25] I
*I *419:io_in[16] I *D user_proj_example
*CAP
1 io_in[25] 0.000699983
2 *419:io_in[16] 0.0406437
3 *18:19 0.0406437
4 *18:17 0.00190049
5 *18:15 0.0022118
6 *18:9 0.00468313
7 *18:7 0.00507179
8 *18:9 *19:9 0.0631814
9 *18:9 *56:17 0.00453784
10 *18:9 *93:17 0.00486583
11 *18:9 *95:17 0.00602424
12 *18:15 *21:7 7.51144e-05
13 *18:17 *55:9 0.0367468
14 *18:17 *58:9 0.00532937
15 *18:17 *94:9 0.0303128
16 *17:9 *18:9 0.0629263
*RES
1 io_in[25] *18:7 10.792 
2 *18:7 *18:9 236.6 
3 *18:9 *18:15 10.768 
4 *18:15 *18:17 101.192 
5 *18:17 *18:19 4.5 
6 *18:19 *419:io_in[16] 355.316 
*END

*D_NET *19 0.270806
*CONN
*P io_in[26] I
*I *419:io_in[17] I *D user_proj_example
*CAP
1 io_in[26] 0.000698892
2 *419:io_in[17] 0.0408101
3 *19:19 0.043681
4 *19:15 0.00310246
5 *19:9 0.00265982
6 *19:7 0.00312706
7 *19:9 *56:17 0.0839079
8 *19:9 *57:15 0.00482441
9 *19:9 *95:17 0.00680333
10 *19:15 *22:7 0
11 *19:19 *56:9 0.0139865
12 *19:19 *59:9 0.00363498
13 *19:19 *95:15 0.000387776
14 *18:9 *19:9 0.0631814
*RES
1 io_in[26] *19:7 10.584 
2 *19:7 *19:9 237.432 
3 *19:9 *19:15 10.352 
4 *19:15 *19:19 47.452 
5 *19:19 *419:io_in[17] 355.94 
*END

*D_NET *20 0.253812
*CONN
*P io_in[27] I
*I *419:io_in[18] I *D user_proj_example
*CAP
1 io_in[27] 0.00110474
2 *419:io_in[18] 0.0407441
3 *20:11 0.0407441
4 *20:9 0.00228258
5 *20:7 0.00338733
6 *20:9 *21:9 0.0049683
7 *20:9 *56:9 0.00383195
8 *20:9 *59:9 0.0366684
9 *20:9 *94:17 0.0410966
10 *20:9 *96:9 0.0785912
11 *17:15 *20:7 0.00039309
*RES
1 io_in[27] *20:7 12.04 
2 *20:7 *20:9 222.872 
3 *20:9 *20:11 4.5 
4 *20:11 *419:io_in[18] 355.732 
*END

*D_NET *21 0.203376
*CONN
*P io_in[28] I
*I *419:io_in[19] I *D user_proj_example
*CAP
1 io_in[28] 0.00105495
2 *419:io_in[19] 0.0407893
3 *21:11 0.0407893
4 *21:9 0.00198485
5 *21:7 0.0030398
6 *21:9 *57:15 0
7 *21:9 *59:9 0.0451708
8 *21:9 *60:9 0.0137615
9 *21:9 *94:17 0.0097071
10 *21:9 *95:17 0.042035
11 *18:15 *21:7 7.51144e-05
12 *20:9 *21:9 0.0049683
*RES
1 io_in[28] *21:7 11.624 
2 *21:7 *21:9 165.464 
3 *21:9 *21:11 4.5 
4 *21:11 *419:io_in[19] 356.148 
*END

*D_NET *22 0.161003
*CONN
*P io_in[29] I
*I *419:io_in[20] I *D user_proj_example
*CAP
1 io_in[29] 0.00118424
2 *419:io_in[20] 0.0405676
3 *22:11 0.0405676
4 *22:9 0.00227476
5 *22:7 0.003459
6 *22:9 *24:9 0.00126037
7 *22:9 *55:9 0.000239772
8 *22:9 *95:15 0.00133399
9 *22:9 *97:9 0.0374262
10 *22:9 *98:9 0.0326893
11 *19:15 *22:7 0
*RES
1 io_in[29] *22:7 12.872 
2 *22:7 *22:9 108.056 
3 *22:9 *22:11 4.5 
4 *22:11 *419:io_in[20] 354.9 
*END

*D_NET *24 0.103661
*CONN
*P io_in[30] I
*I *419:io_in[21] I *D user_proj_example
*CAP
1 io_in[30] 0.000900169
2 *419:io_in[21] 0.0406365
3 *24:11 0.0406365
4 *24:9 0.00168754
5 *24:7 0.00258771
6 *419:io_in[21] io_oeb[30] 0
7 *24:9 io_out[30] 0.00421051
8 *24:9 *58:9 0.000196213
9 *24:9 *59:9 0.00896071
10 *24:9 *60:9 0.000475067
11 *24:9 *97:9 0.00166588
12 *24:9 *98:9 0.00044388
13 *22:9 *24:9 0.00126037
*RES
1 io_in[30] *24:7 12.04 
2 *24:7 *24:9 50.648 
3 *24:9 *24:11 4.5 
4 *24:11 *419:io_in[21] 355.732 
*END

*D_NET *25 0.0845959
*CONN
*P io_in[31] I
*I *419:io_in[22] I *D user_proj_example
*CAP
1 io_in[31] 0.00165854
2 *419:io_in[22] 0.0406139
3 *25:11 0.0422725
4 *25:11 *101:5 5.10054e-05
*RES
1 io_in[31] *25:11 23.3 
2 *25:11 *419:io_in[22] 355.524 
*END

*D_NET *26 0.115463
*CONN
*P io_in[32] I
*I *419:io_in[23] I *D user_proj_example
*CAP
1 io_in[32] 0.0406409
2 *419:io_in[23] 0.000874252
3 *26:9 0.00365435
4 *26:7 0.0027801
5 *26:5 0.0406409
6 *26:9 *27:9 0.00046703
7 *26:9 *28:9 0.000631105
8 *26:9 *29:9 0.000285519
9 *26:9 *64:9 0
10 *26:9 *65:9 0.00044388
11 *26:9 *66:9 0.00127211
12 *26:9 *102:9 0.0229675
13 *26:9 *104:9 0.000805158
*RES
1 io_in[32] *26:5 356.564 
2 *26:5 *26:7 4.5 
3 *26:7 *26:9 64.376 
4 *26:9 *419:io_in[23] 11.208 
*END

*D_NET *27 0.174881
*CONN
*P io_in[33] I
*I *419:io_in[24] I *D user_proj_example
*CAP
1 io_in[33] 0.0409285
2 *419:io_in[24] 0.00076013
3 *27:9 0.0034253
4 *27:7 0.00266517
5 *27:5 0.0409285
6 *27:5 *31:17 0.000207194
7 *27:9 *30:19 0.00265009
8 *27:9 *31:17 0.00179376
9 *27:9 *64:9 0.0381449
10 *27:9 *65:9 0.0429105
11 *26:9 *27:9 0.00046703
*RES
1 io_in[33] *27:5 357.812 
2 *27:5 *27:7 4.5 
3 *27:7 *27:9 121.784 
4 *27:9 *419:io_in[24] 9.96 
*END

*D_NET *28 0.218561
*CONN
*P io_in[34] I
*I *419:io_in[25] I *D user_proj_example
*CAP
1 io_in[34] 0.0409249
2 *419:io_in[25] 0.000848374
3 *28:9 0.00310184
4 *28:7 0.00225347
5 *28:5 0.0409249
6 *28:9 *65:9 0.0611351
7 *28:9 *104:9 0.0687411
8 *26:9 *28:9 0.000631105
*RES
1 io_in[34] *28:5 357.396 
2 *28:5 *28:7 4.5 
3 *28:7 *28:9 179.192 
4 *28:9 *419:io_in[25] 10.376 
*END

*D_NET *29 0.265242
*CONN
*P io_in[35] I
*I *419:io_in[26] I *D user_proj_example
*CAP
1 io_in[35] 0.0407926
2 *419:io_in[26] 0.000980741
3 *29:9 0.00320034
4 *29:7 0.0022196
5 *29:5 0.0407926
6 *29:9 *66:9 0.0840735
7 *29:9 *102:9 0.00113797
8 *29:9 *105:9 0.0917594
9 *26:9 *29:9 0.000285519
*RES
1 io_in[35] *29:5 356.772 
2 *29:5 *29:7 4.5 
3 *29:7 *29:9 236.6 
4 *29:9 *419:io_in[26] 11 
*END

*D_NET *30 0.230459
*CONN
*P io_in[36] I
*I *419:io_in[27] I *D user_proj_example
*CAP
1 io_in[36] 0.0405924
2 *419:io_in[27] 0.000782192
3 *30:19 0.00390701
4 *30:9 0.0119456
5 *30:7 0.00882082
6 *30:5 0.0405924
7 *30:9 *31:9 0.0046106
8 *30:9 *67:17 0.0943074
9 *30:9 *105:9 0.0144696
10 *30:19 io_oeb[32] 0.000835259
11 *30:19 *31:17 0.00423393
12 *30:19 *67:15 0.00271166
13 *27:9 *30:19 0.00265009
*RES
1 io_in[36] *30:5 355.524 
2 *30:5 *30:7 4.5 
3 *30:7 *30:9 261.976 
4 *30:9 *30:19 48.028 
5 *30:19 *419:io_in[27] 5.46 
*END

*D_NET *31 0.231115
*CONN
*P io_in[37] I
*I *419:io_in[28] I *D user_proj_example
*CAP
1 io_in[37] 0.0404826
2 *419:io_in[28] 0.000851307
3 *31:17 0.00517096
4 *31:9 0.0267471
5 *31:7 0.0224275
6 *31:5 0.0404826
7 *31:9 *67:17 0.0836685
8 *31:17 *64:9 0.000438692
9 *27:5 *31:17 0.000207194
10 *27:9 *31:17 0.00179376
11 *30:9 *31:9 0.0046106
12 *30:19 *31:17 0.00423393
*RES
1 io_in[37] *31:5 355.108 
2 *31:5 *31:7 4.5 
3 *31:7 *31:9 313.976 
4 *31:9 *31:17 49.56 
5 *31:17 *419:io_in[28] 9.752 
*END

*D_NET *38 0.229614
*CONN
*P io_in[9] I
*I *419:io_in[0] I *D user_proj_example
*CAP
1 io_in[9] 0.00168118
2 *419:io_in[0] 0.0507061
3 *38:11 0.0507061
4 *38:9 0.018939
5 *38:7 0.0206202
6 *38:7 *82:5 1.276e-05
7 *2:9 *38:9 0.0869489
*RES
1 io_in[9] *38:7 14.536 
2 *38:7 *38:9 267.176 
3 *38:9 *38:11 4.5 
4 *38:11 *419:io_in[0] 349.7 
*END

*D_NET *40 0.317896
*CONN
*P io_oeb[10] O
*I *419:io_oeb[1] O *D user_proj_example
*CAP
1 io_oeb[10] 0.0010551
2 *419:io_oeb[1] 0.0401187
3 *40:9 0.00420665
4 *40:7 0.00315154
5 *40:5 0.0401187
6 *40:9 *78:9 0.11305
7 *2:9 *40:9 0
8 *3:9 *40:9 0.116195
*RES
1 *419:io_oeb[1] *40:5 351.364 
2 *40:5 *40:7 4.5 
3 *40:7 *40:9 306.904 
4 *40:9 io_oeb[10] 12.872 
*END

*D_NET *41 0.351688
*CONN
*P io_oeb[11] O
*I *419:io_oeb[2] O *D user_proj_example
*CAP
1 io_oeb[11] 0.00110032
2 *419:io_oeb[2] 0.0509561
3 *41:9 0.00521708
4 *41:7 0.00411677
5 *41:5 0.0509561
6 *2:9 *41:9 0.00108177
7 *3:9 *41:9 0.112564
8 *4:9 *41:9 0.125696
*RES
1 *419:io_oeb[2] *41:5 350.948 
2 *41:5 *41:7 4.5 
3 *41:7 *41:9 330.408 
4 *41:9 io_oeb[11] 13.288 
*END

*D_NET *42 0.357501
*CONN
*P io_oeb[12] O
*I *419:io_oeb[3] O *D user_proj_example
*CAP
1 io_oeb[12] 0.00119926
2 *419:io_oeb[3] 0.0400272
3 *42:9 0.0037925
4 *42:7 0.00259324
5 *42:5 0.0400272
6 *42:9 *43:9 0.0137454
7 *42:9 *80:9 0.13197
8 *42:9 *82:9 0.10842
9 *2:9 *42:9 0.0145876
10 *6:9 *42:9 0.00113935
*RES
1 *419:io_oeb[3] *42:5 350.324 
2 *42:5 *42:7 4.5 
3 *42:7 *42:9 354.12 
4 *42:9 io_oeb[12] 13.912 
*END

*D_NET *43 0.374789
*CONN
*P io_oeb[13] O
*I *419:io_oeb[4] O *D user_proj_example
*CAP
1 io_oeb[13] 0.00116827
2 *419:io_oeb[4] 0.0400582
3 *43:9 0.00535248
4 *43:7 0.00418421
5 *43:5 0.0400582
6 *43:9 *82:9 0.000843701
7 *5:9 *43:9 0.128347
8 *6:9 *43:9 0.141031
9 *42:9 *43:9 0.0137454
*RES
1 *419:io_oeb[4] *43:5 350.324 
2 *43:5 *43:7 4.5 
3 *43:7 *43:9 377.832 
4 *43:9 io_oeb[13] 13.912 
*END

*D_NET *44 0.228967
*CONN
*P io_oeb[14] O
*I *419:io_oeb[5] O *D user_proj_example
*CAP
1 io_oeb[14] 0.040321
2 *419:io_oeb[5] 0.000896878
3 *44:11 0.040321
4 *44:9 0.0420204
5 *44:7 0.0429172
6 *44:9 *79:9 0.0624904
*RES
1 *419:io_oeb[5] *44:7 11.416 
2 *44:7 *44:9 401.544 
3 *44:9 *44:11 4.5 
4 *44:11 io_oeb[14] 352.82 
*END

*D_NET *45 0.312823
*CONN
*P io_oeb[15] O
*I *419:io_oeb[6] O *D user_proj_example
*CAP
1 io_oeb[15] 0.0473403
2 *419:io_oeb[6] 0.000732701
3 *45:13 0.0473403
4 *45:11 0.00430287
5 *45:9 0.00503557
6 *7:9 *45:11 0.105376
7 *8:9 *45:11 0.100333
8 *10:9 *45:11 0.00236276
*RES
1 *419:io_oeb[6] *45:9 10.48 
2 *45:9 *45:11 292.76 
3 *45:11 *45:13 4.5 
4 *45:13 io_oeb[15] 399.412 
*END

*D_NET *46 0.247027
*CONN
*P io_oeb[16] O
*I *419:io_oeb[7] O *D user_proj_example
*CAP
1 io_oeb[16] 0.0473122
2 *419:io_oeb[7] 0.00090239
3 *46:13 0.0473122
4 *46:11 0.00334776
5 *46:9 0.00425015
6 *8:9 *46:11 0.0729462
7 *9:9 *46:11 0.0677649
8 *10:9 *46:11 0.00319082
*RES
1 *419:io_oeb[7] *46:9 11.936 
2 *46:9 *46:11 211.224 
3 *46:11 *46:13 4.5 
4 *46:13 io_oeb[16] 398.996 
*END

*D_NET *47 0.156647
*CONN
*P io_oeb[17] O
*I *419:io_oeb[8] O *D user_proj_example
*CAP
1 io_oeb[17] 0.0472637
2 *419:io_oeb[8] 0.00090239
3 *47:13 0.0472637
4 *47:11 0.00863804
5 *47:9 0.00954043
6 *9:9 *47:11 0.0413016
7 *10:9 *47:11 0.00173664
*RES
1 *419:io_oeb[8] *47:9 11.936 
2 *47:9 *47:11 131.352 
3 *47:11 *47:13 4.5 
4 *47:13 io_oeb[17] 398.58 
*END

*D_NET *48 0.121522
*CONN
*P io_oeb[18] O
*I *419:io_oeb[9] O *D user_proj_example
*CAP
1 io_oeb[18] 0.00111232
2 *419:io_oeb[9] 0.00235834
3 *48:15 0.0042481
4 *48:13 0.00313579
5 *48:11 0.0445186
6 *48:9 0.0468769
7 *48:15 *86:15 0.015067
8 *11:11 *48:15 0.00420462
*RES
1 *419:io_oeb[9] *48:9 19.916 
2 *48:9 *48:11 376.272 
3 *48:11 *48:13 4.5 
4 *48:13 *48:15 51.688 
5 *48:15 io_oeb[18] 13.912 
*END

*D_NET *49 0.105364
*CONN
*P io_oeb[19] O
*I *419:io_oeb[10] O *D user_proj_example
*CAP
1 io_oeb[19] 0.0014176
2 *419:io_oeb[10] 0.00314237
3 *49:15 0.0477318
4 *49:13 0.0494566
5 *419:io_in[11] *49:13 0.00361558
*RES
1 *419:io_oeb[10] *49:13 39.42 
2 *49:13 *49:15 391.352 
3 *49:15 io_oeb[19] 21.012 
*END

*D_NET *51 0.168856
*CONN
*P io_oeb[20] O
*I *419:io_oeb[11] O *D user_proj_example
*CAP
1 io_oeb[20] 0.047385
2 *419:io_oeb[11] 0.00078504
3 *51:13 0.047385
4 *51:11 0.0018005
5 *51:9 0.00258554