*SPEF "ieee 1481-1999"
*DESIGN "user_project_wrapper"
*DATE "11:11:11 Fri 11 11, 1111"
*VENDOR "OpenRCX"
*PROGRAM "Parallel Extraction"
*VERSION "1.0"
*DESIGN_FLOW "NAME_SCOPE LOCAL" "PIN_CAP NONE"
*DIVIDER /
*DELIMITER :
*BUS_DELIMITER []
*T_UNIT 1 NS
*C_UNIT 1 PF
*R_UNIT 1 OHM
*L_UNIT 1 HENRY

*NAME_MAP
*1 io_in[0]
*2 io_in[10]
*3 io_in[11]
*4 io_in[12]
*5 io_in[13]
*6 io_in[14]
*7 io_in[15]
*8 io_in[16]
*9 io_in[17]
*10 io_in[18]
*11 io_in[19]
*12 io_in[1]
*13 io_in[20]
*14 io_in[21]
*15 io_in[22]
*16 io_in[23]
*17 io_in[24]
*18 io_in[25]
*19 io_in[26]
*20 io_in[27]
*21 io_in[28]
*22 io_in[29]
*23 io_in[2]
*24 io_in[30]
*25 io_in[31]
*26 io_in[32]
*27 io_in[33]
*28 io_in[34]
*29 io_in[35]
*30 io_in[36]
*31 io_in[37]
*32 io_in[3]
*33 io_in[4]
*34 io_in[5]
*35 io_in[6]
*36 io_in[7]
*37 io_in[8]
*38 io_in[9]
*39 io_oeb[0]
*40 io_oeb[10]
*41 io_oeb[11]
*42 io_oeb[12]
*43 io_oeb[13]
*44 io_oeb[14]
*45 io_oeb[15]
*46 io_oeb[16]
*47 io_oeb[17]
*48 io_oeb[18]
*49 io_oeb[19]
*50 io_oeb[1]
*51 io_oeb[20]
*52 io_oeb[21]
*53 io_oeb[22]
*54 io_oeb[23]
*55 io_oeb[24]
*56 io_oeb[25]
*57 io_oeb[26]
*58 io_oeb[27]
*59 io_oeb[28]
*60 io_oeb[29]
*61 io_oeb[2]
*62 io_oeb[30]
*63 io_oeb[31]
*64 io_oeb[32]
*65 io_oeb[33]
*66 io_oeb[34]
*67 io_oeb[35]
*68 io_oeb[36]
*69 io_oeb[37]
*70 io_oeb[3]
*71 io_oeb[4]
*72 io_oeb[5]
*73 io_oeb[6]
*74 io_oeb[7]
*75 io_oeb[8]
*76 io_oeb[9]
*77 io_out[0]
*78 io_out[10]
*79 io_out[11]
*80 io_out[12]
*81 io_out[13]
*82 io_out[14]
*83 io_out[15]
*84 io_out[16]
*85 io_out[17]
*86 io_out[18]
*87 io_out[19]
*88 io_out[1]
*89 io_out[20]
*90 io_out[21]
*91 io_out[22]
*92 io_out[23]
*93 io_out[24]
*94 io_out[25]
*95 io_out[26]
*96 io_out[27]
*97 io_out[28]
*98 io_out[29]
*99 io_out[2]
*100 io_out[30]
*101 io_out[31]
*102 io_out[32]
*103 io_out[33]
*104 io_out[34]
*105 io_out[35]
*106 io_out[36]
*107 io_out[37]
*108 io_out[3]
*109 io_out[4]
*110 io_out[5]
*111 io_out[6]
*112 io_out[7]
*113 io_out[8]
*114 io_out[9]
*115 la_data_in[0]
*116 la_data_in[10]
*117 la_data_in[11]
*118 la_data_in[12]
*119 la_data_in[13]
*120 la_data_in[14]
*121 la_data_in[15]
*122 la_data_in[16]
*123 la_data_in[17]
*124 la_data_in[18]
*125 la_data_in[19]
*126 la_data_in[1]
*127 la_data_in[20]
*128 la_data_in[21]
*129 la_data_in[22]
*130 la_data_in[23]
*131 la_data_in[24]
*132 la_data_in[25]
*133 la_data_in[26]
*134 la_data_in[27]
*135 la_data_in[28]
*136 la_data_in[29]
*137 la_data_in[2]
*138 la_data_in[30]
*139 la_data_in[31]
*140 la_data_in[32]
*141 la_data_in[33]
*142 la_data_in[34]
*143 la_data_in[35]
*144 la_data_in[36]
*145 la_data_in[37]
*146 la_data_in[38]
*147 la_data_in[39]
*148 la_data_in[3]
*149 la_data_in[40]
*150 la_data_in[41]
*151 la_data_in[42]
*152 la_data_in[43]
*153 la_data_in[44]
*154 la_data_in[45]
*155 la_data_in[46]
*156 la_data_in[47]
*157 la_data_in[48]
*158 la_data_in[49]
*159 la_data_in[4]
*160 la_data_in[50]
*161 la_data_in[51]
*162 la_data_in[52]
*163 la_data_in[53]
*164 la_data_in[54]
*165 la_data_in[55]
*166 la_data_in[56]
*167 la_data_in[57]
*168 la_data_in[58]
*169 la_data_in[59]
*170 la_data_in[5]
*171 la_data_in[60]
*172 la_data_in[61]
*173 la_data_in[62]
*174 la_data_in[63]
*175 la_data_in[6]
*176 la_data_in[7]
*177 la_data_in[8]
*178 la_data_in[9]
*179 la_data_out[0]
*180 la_data_out[10]
*181 la_data_out[11]
*182 la_data_out[12]
*183 la_data_out[13]
*184 la_data_out[14]
*185 la_data_out[15]
*186 la_data_out[16]
*187 la_data_out[17]
*188 la_data_out[18]
*189 la_data_out[19]
*190 la_data_out[1]
*191 la_data_out[20]
*192 la_data_out[21]
*193 la_data_out[22]
*194 la_data_out[23]
*195 la_data_out[24]
*196 la_data_out[25]
*197 la_data_out[26]
*198 la_data_out[27]
*199 la_data_out[28]
*200 la_data_out[29]
*201 la_data_out[2]
*202 la_data_out[30]
*203 la_data_out[31]
*204 la_data_out[32]
*205 la_data_out[33]
*206 la_data_out[34]
*207 la_data_out[35]
*208 la_data_out[36]
*209 la_data_out[37]
*210 la_data_out[38]
*211 la_data_out[39]
*212 la_data_out[3]
*213 la_data_out[40]
*214 la_data_out[41]
*215 la_data_out[42]
*216 la_data_out[43]
*217 la_data_out[44]
*218 la_data_out[45]
*219 la_data_out[46]
*220 la_data_out[47]
*221 la_data_out[48]
*222 la_data_out[49]
*223 la_data_out[4]
*224 la_data_out[50]
*225 la_data_out[51]
*226 la_data_out[52]
*227 la_data_out[53]
*228 la_data_out[54]
*229 la_data_out[55]
*230 la_data_out[56]
*231 la_data_out[57]
*232 la_data_out[58]
*233 la_data_out[59]
*234 la_data_out[5]
*235 la_data_out[60]
*236 la_data_out[61]
*237 la_data_out[62]
*238 la_data_out[63]
*239 la_data_out[6]
*240 la_data_out[7]
*241 la_data_out[8]
*242 la_data_out[9]
*243 la_oenb[0]
*244 la_oenb[10]
*245 la_oenb[11]
*246 la_oenb[12]
*247 la_oenb[13]
*248 la_oenb[14]
*249 la_oenb[15]
*250 la_oenb[16]
*251 la_oenb[17]
*252 la_oenb[18]
*253 la_oenb[19]
*254 la_oenb[1]
*255 la_oenb[20]
*256 la_oenb[21]
*257 la_oenb[22]
*258 la_oenb[23]
*259 la_oenb[24]
*260 la_oenb[25]
*261 la_oenb[26]
*262 la_oenb[27]
*263 la_oenb[28]
*264 la_oenb[29]
*265 la_oenb[2]
*266 la_oenb[30]
*267 la_oenb[31]
*268 la_oenb[32]
*269 la_oenb[33]
*270 la_oenb[34]
*271 la_oenb[35]
*272 la_oenb[36]
*273 la_oenb[37]
*274 la_oenb[38]
*275 la_oenb[39]
*276 la_oenb[3]
*277 la_oenb[40]
*278 la_oenb[41]
*279 la_oenb[42]
*280 la_oenb[43]
*281 la_oenb[44]
*282 la_oenb[45]
*283 la_oenb[46]
*284 la_oenb[47]
*285 la_oenb[48]
*286 la_oenb[49]
*287 la_oenb[4]
*288 la_oenb[50]
*289 la_oenb[51]
*290 la_oenb[52]
*291 la_oenb[53]
*292 la_oenb[54]
*293 la_oenb[55]
*294 la_oenb[56]
*295 la_oenb[57]
*296 la_oenb[58]
*297 la_oenb[59]
*298 la_oenb[5]
*299 la_oenb[60]
*300 la_oenb[61]
*301 la_oenb[62]
*302 la_oenb[63]
*303 la_oenb[6]
*304 la_oenb[7]
*305 la_oenb[8]
*306 la_oenb[9]
*307 user_clock2
*308 user_irq[0]
*309 user_irq[1]
*310 user_irq[2]
*313 wb_clk_i
*314 wb_rst_i
*315 wbs_ack_o
*316 wbs_adr_i[0]
*317 wbs_adr_i[10]
*318 wbs_adr_i[11]
*319 wbs_adr_i[12]
*320 wbs_adr_i[13]
*321 wbs_adr_i[14]
*322 wbs_adr_i[15]
*323 wbs_adr_i[16]
*324 wbs_adr_i[17]
*325 wbs_adr_i[18]
*326 wbs_adr_i[19]
*327 wbs_adr_i[1]
*328 wbs_adr_i[20]
*329 wbs_adr_i[21]
*330 wbs_adr_i[22]
*331 wbs_adr_i[23]
*332 wbs_adr_i[24]
*333 wbs_adr_i[25]
*334 wbs_adr_i[26]
*335 wbs_adr_i[27]
*336 wbs_adr_i[28]
*337 wbs_adr_i[29]
*338 wbs_adr_i[2]
*339 wbs_adr_i[30]
*340 wbs_adr_i[31]
*341 wbs_adr_i[3]
*342 wbs_adr_i[4]
*343 wbs_adr_i[5]
*344 wbs_adr_i[6]
*345 wbs_adr_i[7]
*346 wbs_adr_i[8]
*347 wbs_adr_i[9]
*348 wbs_cyc_i
*349 wbs_dat_i[0]
*350 wbs_dat_i[10]
*351 wbs_dat_i[11]
*352 wbs_dat_i[12]
*353 wbs_dat_i[13]
*354 wbs_dat_i[14]
*355 wbs_dat_i[15]
*356 wbs_dat_i[16]
*357 wbs_dat_i[17]
*358 wbs_dat_i[18]
*359 wbs_dat_i[19]
*360 wbs_dat_i[1]
*361 wbs_dat_i[20]
*362 wbs_dat_i[21]
*363 wbs_dat_i[22]
*364 wbs_dat_i[23]
*365 wbs_dat_i[24]
*366 wbs_dat_i[25]
*367 wbs_dat_i[26]
*368 wbs_dat_i[27]
*369 wbs_dat_i[28]
*370 wbs_dat_i[29]
*371 wbs_dat_i[2]
*372 wbs_dat_i[30]
*373 wbs_dat_i[31]
*374 wbs_dat_i[3]
*375 wbs_dat_i[4]
*376 wbs_dat_i[5]
*377 wbs_dat_i[6]
*378 wbs_dat_i[7]
*379 wbs_dat_i[8]
*380 wbs_dat_i[9]
*381 wbs_dat_o[0]
*382 wbs_dat_o[10]
*383 wbs_dat_o[11]
*384 wbs_dat_o[12]
*385 wbs_dat_o[13]
*386 wbs_dat_o[14]
*387 wbs_dat_o[15]
*388 wbs_dat_o[16]
*389 wbs_dat_o[17]
*390 wbs_dat_o[18]
*391 wbs_dat_o[19]
*392 wbs_dat_o[1]
*393 wbs_dat_o[20]
*394 wbs_dat_o[21]
*395 wbs_dat_o[22]
*396 wbs_dat_o[23]
*397 wbs_dat_o[24]
*398 wbs_dat_o[25]
*399 wbs_dat_o[26]
*400 wbs_dat_o[27]
*401 wbs_dat_o[28]
*402 wbs_dat_o[29]
*403 wbs_dat_o[2]
*404 wbs_dat_o[30]
*405 wbs_dat_o[31]
*406 wbs_dat_o[3]
*407 wbs_dat_o[4]
*408 wbs_dat_o[5]
*409 wbs_dat_o[6]
*410 wbs_dat_o[7]
*411 wbs_dat_o[8]
*412 wbs_dat_o[9]
*413 wbs_sel_i[0]
*414 wbs_sel_i[1]
*415 wbs_sel_i[2]
*416 wbs_sel_i[3]
*417 wbs_stb_i
*418 wbs_we_i
*419 mprj

*PORTS
io_in[0] I
io_in[10] I
io_in[11] I
io_in[12] I
io_in[13] I
io_in[14] I
io_in[15] I
io_in[16] I
io_in[17] I
io_in[18] I
io_in[19] I
io_in[1] I
io_in[20] I
io_in[21] I
io_in[22] I
io_in[23] I
io_in[24] I
io_in[25] I
io_in[26] I
io_in[27] I
io_in[28] I
io_in[29] I
io_in[2] I
io_in[30] I
io_in[31] I
io_in[32] I
io_in[33] I
io_in[34] I
io_in[35] I
io_in[36] I
io_in[37] I
io_in[3] I
io_in[4] I
io_in[5] I
io_in[6] I
io_in[7] I
io_in[8] I
io_in[9] I
io_oeb[0] O
io_oeb[10] O
io_oeb[11] O
io_oeb[12] O
io_oeb[13] O
io_oeb[14] O
io_oeb[15] O
io_oeb[16] O
io_oeb[17] O
io_oeb[18] O
io_oeb[19] O
io_oeb[1] O
io_oeb[20] O
io_oeb[21] O
io_oeb[22] O
io_oeb[23] O
io_oeb[24] O
io_oeb[25] O
io_oeb[26] O
io_oeb[27] O
io_oeb[28] O
io_oeb[29] O
io_oeb[2] O
io_oeb[30] O
io_oeb[31] O
io_oeb[32] O
io_oeb[33] O
io_oeb[34] O
io_oeb[35] O
io_oeb[36] O
io_oeb[37] O
io_oeb[3] O
io_oeb[4] O
io_oeb[5] O
io_oeb[6] O
io_oeb[7] O
io_oeb[8] O
io_oeb[9] O
io_out[0] O
io_out[10] O
io_out[11] O
io_out[12] O
io_out[13] O
io_out[14] O
io_out[15] O
io_out[16] O
io_out[17] O
io_out[18] O
io_out[19] O
io_out[1] O
io_out[20] O
io_out[21] O
io_out[22] O
io_out[23] O
io_out[24] O
io_out[25] O
io_out[26] O
io_out[27] O
io_out[28] O
io_out[29] O
io_out[2] O
io_out[30] O
io_out[31] O
io_out[32] O
io_out[33] O
io_out[34] O
io_out[35] O
io_out[36] O
io_out[37] O
io_out[3] O
io_out[4] O
io_out[5] O
io_out[6] O
io_out[7] O
io_out[8] O
io_out[9] O
la_data_in[0] I
la_data_in[10] I
la_data_in[11] I
la_data_in[12] I
la_data_in[13] I
la_data_in[14] I
la_data_in[15] I
la_data_in[16] I
la_data_in[17] I
la_data_in[18] I
la_data_in[19] I
la_data_in[1] I
la_data_in[20] I
la_data_in[21] I
la_data_in[22] I
la_data_in[23] I
la_data_in[24] I
la_data_in[25] I
la_data_in[26] I
la_data_in[27] I
la_data_in[28] I
la_data_in[29] I
la_data_in[2] I
la_data_in[30] I
la_data_in[31] I
la_data_in[32] I
la_data_in[33] I
la_data_in[34] I
la_data_in[35] I
la_data_in[36] I
la_data_in[37] I
la_data_in[38] I
la_data_in[39] I
la_data_in[3] I
la_data_in[40] I
la_data_in[41] I
la_data_in[42] I
la_data_in[43] I
la_data_in[44] I
la_data_in[45] I
la_data_in[46] I
la_data_in[47] I
la_data_in[48] I
la_data_in[49] I
la_data_in[4] I
la_data_in[50] I
la_data_in[51] I
la_data_in[52] I
la_data_in[53] I
la_data_in[54] I
la_data_in[55] I
la_data_in[56] I
la_data_in[57] I
la_data_in[58] I
la_data_in[59] I
la_data_in[5] I
la_data_in[60] I
la_data_in[61] I
la_data_in[62] I
la_data_in[63] I
la_data_in[6] I
la_data_in[7] I
la_data_in[8] I
la_data_in[9] I
la_data_out[0] O
la_data_out[10] O
la_data_out[11] O
la_data_out[12] O
la_data_out[13] O
la_data_out[14] O
la_data_out[15] O
la_data_out[16] O
la_data_out[17] O
la_data_out[18] O
la_data_out[19] O
la_data_out[1] O
la_data_out[20] O
la_data_out[21] O
la_data_out[22] O
la_data_out[23] O
la_data_out[24] O
la_data_out[25] O
la_data_out[26] O
la_data_out[27] O
la_data_out[28] O
la_data_out[29] O
la_data_out[2] O
la_data_out[30] O
la_data_out[31] O
la_data_out[32] O
la_data_out[33] O
la_data_out[34] O
la_data_out[35] O
la_data_out[36] O
la_data_out[37] O
la_data_out[38] O
la_data_out[39] O
la_data_out[3] O
la_data_out[40] O
la_data_out[41] O
la_data_out[42] O
la_data_out[43] O
la_data_out[44] O
la_data_out[45] O
la_data_out[46] O
la_data_out[47] O
la_data_out[48] O
la_data_out[49] O
la_data_out[4] O
la_data_out[50] O
la_data_out[51] O
la_data_out[52] O
la_data_out[53] O
la_data_out[54] O
la_data_out[55] O
la_data_out[56] O
la_data_out[57] O
la_data_out[58] O
la_data_out[59] O
la_data_out[5] O
la_data_out[60] O
la_data_out[61] O
la_data_out[62] O
la_data_out[63] O
la_data_out[6] O
la_data_out[7] O
la_data_out[8] O
la_data_out[9] O
la_oenb[0] I
la_oenb[10] I
la_oenb[11] I
la_oenb[12] I
la_oenb[13] I
la_oenb[14] I
la_oenb[15] I
la_oenb[16] I
la_oenb[17] I
la_oenb[18] I
la_oenb[19] I
la_oenb[1] I
la_oenb[20] I
la_oenb[21] I
la_oenb[22] I
la_oenb[23] I
la_oenb[24] I
la_oenb[25] I
la_oenb[26] I
la_oenb[27] I
la_oenb[28] I
la_oenb[29] I
la_oenb[2] I
la_oenb[30] I
la_oenb[31] I
la_oenb[32] I
la_oenb[33] I
la_oenb[34] I
la_oenb[35] I
la_oenb[36] I
la_oenb[37] I
la_oenb[38] I
la_oenb[39] I
la_oenb[3] I
la_oenb[40] I
la_oenb[41] I
la_oenb[42] I
la_oenb[43] I
la_oenb[44] I
la_oenb[45] I
la_oenb[46] I
la_oenb[47] I
la_oenb[48] I
la_oenb[49] I
la_oenb[4] I
la_oenb[50] I
la_oenb[51] I
la_oenb[52] I
la_oenb[53] I
la_oenb[54] I
la_oenb[55] I
la_oenb[56] I
la_oenb[57] I
la_oenb[58] I
la_oenb[59] I
la_oenb[5] I
la_oenb[60] I
la_oenb[61] I
la_oenb[62] I
la_oenb[63] I
la_oenb[6] I
la_oenb[7] I
la_oenb[8] I
la_oenb[9] I
user_clock2 I
user_irq[0] O
user_irq[1] O
user_irq[2] O
wb_clk_i I
wb_rst_i I
wbs_ack_o O
wbs_adr_i[0] I
wbs_adr_i[10] I
wbs_adr_i[11] I
wbs_adr_i[12] I
wbs_adr_i[13] I
wbs_adr_i[14] I
wbs_adr_i[15] I
wbs_adr_i[16] I
wbs_adr_i[17] I
wbs_adr_i[18] I
wbs_adr_i[19] I
wbs_adr_i[1] I
wbs_adr_i[20] I
wbs_adr_i[21] I
wbs_adr_i[22] I
wbs_adr_i[23] I
wbs_adr_i[24] I
wbs_adr_i[25] I
wbs_adr_i[26] I
wbs_adr_i[27] I
wbs_adr_i[28] I
wbs_adr_i[29] I
wbs_adr_i[2] I
wbs_adr_i[30] I
wbs_adr_i[31] I
wbs_adr_i[3] I
wbs_adr_i[4] I
wbs_adr_i[5] I
wbs_adr_i[6] I
wbs_adr_i[7] I
wbs_adr_i[8] I
wbs_adr_i[9] I
wbs_cyc_i I
wbs_dat_i[0] I
wbs_dat_i[10] I
wbs_dat_i[11] I
wbs_dat_i[12] I
wbs_dat_i[13] I
wbs_dat_i[14] I
wbs_dat_i[15] I
wbs_dat_i[16] I
wbs_dat_i[17] I
wbs_dat_i[18] I
wbs_dat_i[19] I
wbs_dat_i[1] I
wbs_dat_i[20] I
wbs_dat_i[21] I
wbs_dat_i[22] I
wbs_dat_i[23] I
wbs_dat_i[24] I
wbs_dat_i[25] I
wbs_dat_i[26] I
wbs_dat_i[27] I
wbs_dat_i[28] I
wbs_dat_i[29] I
wbs_dat_i[2] I
wbs_dat_i[30] I
wbs_dat_i[31] I
wbs_dat_i[3] I
wbs_dat_i[4] I
wbs_dat_i[5] I
wbs_dat_i[6] I
wbs_dat_i[7] I
wbs_dat_i[8] I
wbs_dat_i[9] I
wbs_dat_o[0] O
wbs_dat_o[10] O
wbs_dat_o[11] O
wbs_dat_o[12] O
wbs_dat_o[13] O
wbs_dat_o[14] O
wbs_dat_o[15] O
wbs_dat_o[16] O
wbs_dat_o[17] O
wbs_dat_o[18] O
wbs_dat_o[19] O
wbs_dat_o[1] O
wbs_dat_o[20] O
wbs_dat_o[21] O
wbs_dat_o[22] O
wbs_dat_o[23] O
wbs_dat_o[24] O
wbs_dat_o[25] O
wbs_dat_o[26] O
wbs_dat_o[27] O
wbs_dat_o[28] O
wbs_dat_o[29] O
wbs_dat_o[2] O
wbs_dat_o[30] O
wbs_dat_o[31] O
wbs_dat_o[3] O
wbs_dat_o[4] O
wbs_dat_o[5] O
wbs_dat_o[6] O
wbs_dat_o[7] O
wbs_dat_o[8] O
wbs_dat_o[9] O
wbs_sel_i[0] I
wbs_sel_i[1] I
wbs_sel_i[2] I
wbs_sel_i[3] I
wbs_stb_i I
wbs_we_i I

*D_NET *2 0.19862
*CONN
*P io_in[10] I
*I *419:io_in[1] I *D user_proj_example
*CAP
1 io_in[10] 0.00119777
2 *419:io_in[1] 0.0359313
3 *2:11 0.0359313
4 *2:9 0.00889551
5 *2:7 0.0100933
6 *2:9 *3:9 0.00096775
7 *2:9 *4:9 0.0013505
8 *2:9 *38:9 0.066118
9 *2:9 *40:9 0
10 *2:9 *41:9 0.00100496
11 *2:9 *42:9 0.012771
12 *2:9 *78:9 0
13 *2:9 *80:9 0.00170884
14 *2:9 *82:9 0.0226492
*RES
1 io_in[10] *2:7 11.682 
2 *2:7 *2:9 212.572 
3 *2:9 *2:11 4.5 
4 *2:11 *419:io_in[1] 255.702 
*END

*D_NET *3 0.271332
*CONN
*P io_in[11] I
*I *419:io_in[2] I *D user_proj_example
*CAP
1 io_in[11] 0.000943624
2 *419:io_in[2] 0.0442189
3 *3:11 0.0442189
4 *3:9 0.00304795
5 *3:7 0.00399158
6 *3:9 *40:9 0.0883531
7 *3:9 *41:9 0.0855902
8 *2:9 *3:9 0.00096775
*RES
1 io_in[11] *3:7 10.77 
2 *3:7 *3:9 229.9 
3 *3:9 *3:11 4.5 
4 *3:11 *419:io_in[2] 256.614 
*END

*D_NET *4 0.273124
*CONN
*P io_in[12] I
*I *419:io_in[3] I *D user_proj_example
*CAP
1 io_in[12] 0.000984899
2 *419:io_in[3] 0.0360412
3 *4:11 0.0360412
4 *4:9 0.00212752
5 *4:7 0.00311241
6 *4:9 *41:9 0.0955798
7 *4:9 *80:9 0.0978861
8 *2:9 *4:9 0.0013505
*RES
1 io_in[12] *4:7 11.074 
2 *4:7 *4:9 247.228 
3 *4:9 *4:11 4.5 
4 *4:11 *419:io_in[3] 256.31 
*END

*D_NET *5 0.225859
*CONN
*P io_in[13] I
*I *419:io_in[4] I *D user_proj_example
*CAP
1 io_in[13] 0.00100573
2 *419:io_in[4] 0.0360395
3 *5:11 0.0360395
4 *5:9 0.0211452
5 *5:7 0.0221509
6 *5:9 *43:9 0.0972703
7 *5:9 *80:9 0.0122083
*RES
1 io_in[13] *5:7 11.226 
2 *5:7 *5:9 264.556 
3 *5:9 *5:11 4.5 
4 *5:11 *419:io_in[4] 256.158 
*END

*D_NET *6 0.252136
*CONN
*P io_in[14] I
*I *419:io_in[5] I *D user_proj_example
*CAP
1 io_in[14] 0.00125343
2 *419:io_in[5] 0.0359932
3 *6:11 0.0359932
4 *6:9 0.0219397
5 *6:7 0.0231931
6 *6:9 *42:9 0.000889338
7 *6:9 *43:9 0.106885
8 *6:9 *82:9 0.0259894
*RES
1 io_in[14] *6:7 11.53 
2 *6:7 *6:9 281.884 
3 *6:9 *6:11 4.5 
4 *6:11 *419:io_in[5] 255.854 
*END

*D_NET *7 0.210839
*CONN
*P io_in[15] I
*I *419:io_in[6] I *D user_proj_example
*CAP
1 io_in[15] 0.0425928
2 *419:io_in[6] 0.000594611
3 *7:9 0.0227652
4 *7:7 0.0221706
5 *7:5 0.0425928
6 *7:9 *45:11 0.0801232
*RES
1 io_in[15] *7:5 292.03 
2 *7:5 *7:7 4.5 
3 *7:7 *7:9 253.308 
4 *7:9 *419:io_in[6] 8.566 
*END

*D_NET *8 0.229568
*CONN
*P io_in[16] I
*I *419:io_in[7] I *D user_proj_example
*CAP
1 io_in[16] 0.0425619
2 *419:io_in[7] 0.000738635
3 *8:9 0.00534534
4 *8:7 0.00460671
5 *8:5 0.0425619
6 *8:9 *10:9 0.00199883
7 *8:9 *45:11 0.0762907
8 *8:9 *46:11 0.0554638
*RES
1 io_in[16] *8:5 291.726 
2 *8:5 *8:7 4.5 
3 *8:7 *8:9 193.876 
4 *8:9 *419:io_in[7] 9.478 
*END

*D_NET *9 0.18004
*CONN
*P io_in[17] I
*I *419:io_in[8] I *D user_proj_example
*CAP
1 io_in[17] 0.0425309
2 *419:io_in[8] 0.000716766
3 *9:9 0.00544004
4 *9:7 0.00472327
5 *9:5 0.0425309
6 *9:9 *10:9 0.00116827
7 *9:9 *46:11 0.0515252
8 *9:9 *47:11 0.0314046
*RES
1 io_in[17] *9:5 291.422 
2 *9:5 *9:7 4.5 
3 *9:7 *9:9 135.508 
4 *9:9 *419:io_in[8] 9.326 
*END

*D_NET *10 0.111267
*CONN
*P io_in[18] I
*I *419:io_in[9] I *D user_proj_example
*CAP
1 io_in[18] 0.0426313
2 *419:io_in[9] 0.000725825
3 *10:9 0.00825844
4 *10:7 0.00753261
5 *10:5 0.0426313
6 *10:9 *45:11 0.00179671
7 *10:9 *46:11 0.0029112
8 *10:9 *47:11 0.00161234
9 *8:9 *10:9 0.00199883
10 *9:9 *10:9 0.00116827
*RES
1 io_in[18] *10:5 292.03 
2 *10:5 *10:7 4.5 
3 *10:7 *10:9 75.924 
4 *10:9 *419:io_in[9] 9.478 
*END

*D_NET *11 0.0937802
*CONN
*P io_in[19] I
*I *419:io_in[10] I *D user_proj_example
*CAP
1 io_in[19] 0.00313987
2 *419:io_in[10] 0.00212163
3 *11:13 0.0421524
4 *11:11 0.0431706
5 *11:11 *48:17 0.00319566
*RES
1 io_in[19] *11:11 34.194 
2 *11:11 *11:13 274.816 
3 *11:13 *419:io_in[10] 14.554 
*END

*D_NET *13 0.101889
*CONN
*P io_in[20] I
*I *419:io_in[11] I *D user_proj_example
*CAP
1 io_in[20] 0.00403726
2 *419:io_in[11] 0.00227739
3 *13:13 0.0438409
4 *13:11 0.0456007
5 *419:io_in[11] *49:13 0.0027475
6 *419:io_in[11] *89:11 0.0033848
*RES
1 io_in[20] *13:11 37.386 
2 *13:11 *13:13 285.076 
3 *13:13 *419:io_in[11] 32.142 
*END

*D_NET *14 0.139129
*CONN
*P io_in[21] I
*I *419:io_in[12] I *D user_proj_example
*CAP
1 io_in[21] 0.042666
2 *419:io_in[12] 0.000638349
3 *14:9 0.00791324
4 *14:7 0.00727489
5 *14:5 0.042666
6 *14:9 *16:9 0.000526133
7 *14:9 *51:11 0.0285304
8 *14:9 *54:13 0.00695184
9 *14:9 *92:11 0.00196247
*RES
1 io_in[21] *14:5 292.182 
2 *14:5 *14:7 4.5 
3 *14:7 *14:9 99.028 
4 *14:9 *419:io_in[12] 8.87 
*END

*D_NET *15 0.207122
*CONN
*P io_in[22] I
*I *419:io_in[13] I *D user_proj_example
*CAP
1 io_in[22] 0.0424322
2 *419:io_in[13] 0.000851755
3 *15:9 0.00358127
4 *15:7 0.00272951
5 *15:5 0.0424322
6 *15:9 *51:11 0.000162609
7 *15:9 *52:11 0.0529005
8 *15:9 *89:11 0.000818223
9 *15:9 *91:11 0.0612134
*RES
1 io_in[22] *15:5 291.27 
2 *15:5 *15:7 4.5 
3 *15:7 *15:9 157.548 
4 *15:9 *419:io_in[13] 10.086 
*END

*D_NET *16 0.256688
*CONN
*P io_in[23] I
*I *419:io_in[14] I *D user_proj_example
*CAP
1 io_in[23] 0.0424978
2 *419:io_in[14] 0.000663982
3 *16:9 0.00327982
4 *16:7 0.00261584
5 *16:5 0.0424978
6 *16:9 *51:11 0.00156583
7 *16:9 *53:11 0.0776128
8 *16:9 *92:11 0.0854279
9 *14:9 *16:9 0.000526133
*RES
1 io_in[23] *16:5 291.726 
2 *16:5 *16:7 4.5 
3 *16:7 *16:9 217.132 
4 *16:9 *419:io_in[14] 8.87 
*END

*D_NET *17 0.256935
*CONN
*P io_in[24] I
*I *419:io_in[15] I *D user_proj_example
*CAP
1 io_in[24] 0.000655179
2 *419:io_in[15] 0.0364472
3 *17:19 0.0364472
4 *17:17 0.00999556
5 *17:15 0.0102384
6 *17:9 0.00592839
7 *17:7 0.00634077
8 *17:9 *18:9 0.0478481
9 *17:9 *93:17 0.0638025
10 *17:15 *20:7 0.000297253
11 *17:17 *93:9 0.0389348
*RES
1 io_in[24] *17:7 9.25 
2 *17:7 *17:9 172.292 
3 *17:9 *17:15 10.596 
4 *17:15 *17:17 116.508 
5 *17:17 *17:19 4.5 
6 *17:19 *419:io_in[15] 259.198 
*END

*D_NET *18 0.250403
*CONN
*P io_in[25] I
*I *419:io_in[16] I *D user_proj_example
*CAP
1 io_in[25] 0.000634542
2 *419:io_in[16] 0.0365415
3 *18:19 0.0365415
4 *18:17 0.00167157
5 *18:15 0.00191169
6 *18:9 0.00391476
7 *18:7 0.00430918
8 *18:9 *19:9 0.0480415
9 *18:9 *56:17 0.00397603
10 *18:9 *93:17 0.00426096
11 *18:9 *95:17 0.00547262
12 *18:15 *21:7 7.16567e-05
13 *18:17 *55:9 0.0278498
14 *18:17 *58:9 0.00438496
15 *18:17 *94:9 0.0229726
16 *17:9 *18:9 0.0478481
*RES
1 io_in[25] *18:7 9.098 
2 *18:7 *18:9 172.9 
3 *18:9 *18:15 10.292 
4 *18:15 *18:17 73.948 
5 *18:17 *18:19 4.5 
6 *18:19 *419:io_in[16] 259.654 
*END

*D_NET *19 0.220176
*CONN
*P io_in[26] I
*I *419:io_in[17] I *D user_proj_example
*CAP
1 io_in[26] 0.000627587
2 *419:io_in[17] 0.0366651
3 *19:19 0.0394053
4 *19:9 0.00467283
5 *19:7 0.00256021
6 *19:9 *56:17 0.0638044
7 *19:9 *57:15 0.00422729
8 *19:9 *95:17 0.00621648
9 *19:19 *22:7 0
10 *19:19 *56:9 0.0105998
11 *19:19 *59:9 0.00299083
12 *19:19 *95:15 0.000364523
13 *18:9 *19:9 0.0480415
*RES
1 io_in[26] *19:7 8.946 
2 *19:7 *19:9 173.508 
3 *19:9 *19:19 45.876 
4 *19:19 *419:io_in[17] 260.11 
*END

*D_NET *20 0.205472
*CONN
*P io_in[27] I
*I *419:io_in[18] I *D user_proj_example
*CAP
1 io_in[27] 0.000932017
2 *419:io_in[18] 0.0366186
3 *20:11 0.0366186
4 *20:9 0.00184501
5 *20:7 0.00277703
6 *20:9 *21:9 0.0043481
7 *20:9 *56:9 0.00315289
8 *20:9 *59:9 0.0278792
9 *20:9 *94:17 0.0312475
10 *20:9 *96:9 0.0597559
11 *17:15 *20:7 0.000297253
*RES
1 io_in[27] *20:7 10.01 
2 *20:7 *20:9 162.868 
3 *20:9 *20:11 4.5 
4 *20:11 *419:io_in[18] 259.958 
*END

*D_NET *21 0.166979
*CONN
*P io_in[28] I
*I *419:io_in[19] I *D user_proj_example
*CAP
1 io_in[28] 0.000896269
2 *419:io_in[19] 0.0366599
3 *21:11 0.0366599
4 *21:9 0.00164716
5 *21:7 0.00254343
6 *21:9 *57:15 0
7 *21:9 *59:9 0.0343447
8 *21:9 *60:9 0.0104636
9 *21:9 *94:17 0.00738208
10 *21:9 *95:17 0.0319622
11 *18:15 *21:7 7.16567e-05
12 *20:9 *21:9 0.0043481
*RES
1 io_in[28] *21:7 9.706 
2 *21:7 *21:9 120.916 
3 *21:9 *21:11 4.5 
4 *21:11 *419:io_in[19] 260.262 
*END

*D_NET *22 0.134546
*CONN
*P io_in[29] I
*I *419:io_in[20] I *D user_proj_example
*CAP
1 io_in[29] 0.00099974
2 *419:io_in[20] 0.0364813
3 *22:11 0.0364813
4 *22:9 0.00192131
5 *22:7 0.00292105
6 *22:9 *24:9 0.00114667
7 *22:9 *55:9 0.000187157
8 *22:9 *95:15 0.0010976
9 *22:9 *97:9 0.0284542
10 *22:9 *98:9 0.0248559
11 *19:19 *22:7 0
*RES
1 io_in[29] *22:7 10.618 
2 *22:7 *22:9 78.964 
3 *22:9 *22:11 4.5 
4 *22:11 *419:io_in[20] 259.35 
*END

*D_NET *24 0.0917475
*CONN
*P io_in[30] I
*I *419:io_in[21] I *D user_proj_example
*CAP
1 io_in[30] 0.00223332
2 *419:io_in[21] 0.0365502
3 *24:11 0.0365502
4 *24:9 0.00223332
5 *419:io_in[21] io_oeb[30] 0
6 *24:9 io_out[30] 0.00369052
7 *24:9 *58:9 0.000172088
8 *24:9 *59:9 0.0068143
9 *24:9 *60:9 0.000430333
10 *24:9 *97:9 0.00151262
11 *24:9 *98:9 0.000413912
12 *22:9 *24:9 0.00114667
*RES
1 io_in[30] *24:9 47.022 
2 *24:9 *24:11 4.5 
3 *24:11 *419:io_in[21] 259.958 
*END

*D_NET *25 0.0760678
*CONN
*P io_in[31] I
*I *419:io_in[22] I *D user_proj_example
*CAP
1 io_in[31] 0.00148062
2 *419:io_in[22] 0.0365296
3 *25:11 0.0380102
4 *25:11 *101:5 4.73783e-05
*RES
1 io_in[31] *25:11 19.45 
2 *25:11 *419:io_in[22] 259.806 
*END

*D_NET *26 0.100485
*CONN
*P io_in[32] I
*I *419:io_in[23] I *D user_proj_example
*CAP
1 io_in[32] 0.036578
2 *419:io_in[23] 0.000757888
3 *26:9 0.00319111
4 *26:7 0.00243322
5 *26:5 0.036578
6 *26:9 *27:9 0.000431997
7 *26:9 *28:9 0.000574075
8 *26:9 *29:9 0.000217045
9 *26:9 *64:9 0
10 *26:9 *65:9 0.000413912
11 *26:9 *66:9 0.0011118
12 *26:9 *102:9 0.0174652
13 *26:9 *104:9 0.000732381
*RES
1 io_in[32] *26:5 260.566 
2 *26:5 *26:7 4.5 
3 *26:7 *26:9 47.044 
4 *26:9 *419:io_in[23] 9.402 
*END

*D_NET *27 0.145209
*CONN
*P io_in[33] I
*I *419:io_in[24] I *D user_proj_example
*CAP
1 io_in[33] 0.0367687
2 *419:io_in[24] 0.000647746
3 *27:9 0.00300186
4 *27:7 0.00235411
5 *27:5 0.0367687
6 *27:5 *419:io_in[28] 0.00020016
7 *27:9 *419:io_in[27] 0.00218047
8 *27:9 *419:io_in[28] 0.00122425
9 *27:9 *64:9 0.0290043
10 *27:9 *65:9 0.0326266
11 *26:9 *27:9 0.000431997
*RES
1 io_in[33] *27:5 261.478 
2 *27:5 *27:7 4.5 
3 *27:7 *27:9 88.996 
4 *27:9 *419:io_in[24] 8.49 
*END

*D_NET *28 0.178038
*CONN
*P io_in[34] I
*I *419:io_in[25] I *D user_proj_example
*CAP
1 io_in[34] 0.0367837
2 *419:io_in[25] 0.000716386
3 *28:9 0.00257111
4 *28:7 0.00185472
5 *28:5 0.0367837
6 *28:9 *65:9 0.0464868
7 *28:9 *104:9 0.0522679
8 *26:9 *28:9 0.000574075
*RES
1 io_in[34] *28:5 261.174 
2 *28:5 *28:7 4.5 
3 *28:7 *28:9 130.948 
4 *28:9 *419:io_in[25] 8.794 
*END

*D_NET *29 0.213493
*CONN
*P io_in[35] I
*I *419:io_in[26] I *D user_proj_example
*CAP
1 io_in[35] 0.0366808
2 *419:io_in[26] 0.000819346
3 *29:9 0.00261156
4 *29:7 0.00179221
5 *29:5 0.0366808
6 *29:9 *66:9 0.0639257
7 *29:9 *102:9 0.000994763
8 *29:9 *105:9 0.0697708
9 *26:9 *29:9 0.000217045
*RES
1 io_in[35] *29:5 260.718 
2 *29:5 *29:7 4.5 
3 *29:7 *29:9 172.9 
4 *29:9 *419:io_in[26] 9.25 
*END

*D_NET *30 0.192283
*CONN
*P io_in[36] I
*I *419:io_in[27] I *D user_proj_example
*CAP
1 io_in[36] 0.0365159
2 *419:io_in[27] 0.00340341
3 *30:9 0.0110309
4 *30:7 0.00762754
5 *30:5 0.0365159
6 *419:io_in[27] io_oeb[32] 0.000631249
7 *419:io_in[27] *419:io_in[28] 0.00320836
8 *419:io_in[27] *67:15 0.00205536
9 *30:9 *31:9 0.00403551
10 *30:9 *67:17 0.0717071
11 *30:9 *105:9 0.0133712
12 *27:9 *419:io_in[27] 0.00218047
*RES
1 io_in[36] *30:5 259.806 
2 *30:5 *30:7 4.5 
3 *30:7 *30:9 191.444 
4 *30:9 *419:io_in[27] 42.722 
*END

*D_NET *31 0.194789
*CONN
*P io_in[37] I
*I *419:io_in[28] I *D user_proj_example
*CAP
1 io_in[37] 0.0364336
2 *419:io_in[28] 0.0045215
3 *31:9 0.0246372
4 *31:7 0.0201157
5 *31:5 0.0364336
6 *419:io_in[28] *64:9 0.000360952
7 *31:9 *67:17 0.0636179
8 *419:io_in[27] *419:io_in[28] 0.00320836
9 *27:5 *419:io_in[28] 0.00020016
10 *27:9 *419:io_in[28] 0.00122425
11 *30:9 *31:9 0.00403551
*RES
1 io_in[37] *31:5 259.502 
2 *31:5 *31:7 4.5 
3 *31:7 *31:9 229.444 
4 *31:9 *419:io_in[28] 46.978 
*END

*D_NET *38 0.190787
*CONN
*P io_in[9] I
*I *419:io_in[0] I *D user_proj_example
*CAP
1 io_in[9] 0.00139
2 *419:io_in[0] 0.0440045
3 *38:11 0.0440045
4 *38:9 0.0169332
5 *38:7 0.0183232
6 *38:7 *82:5 1.40761e-05
7 *2:9 *38:9 0.066118
*RES
1 io_in[9] *38:7 11.834 
2 *38:7 *38:9 195.244 
3 *38:9 *38:11 4.5 
4 *38:11 *419:io_in[0] 255.55 
*END

*D_NET *40 0.253583
*CONN
*P io_oeb[10] O
*I *419:io_oeb[1] O *D user_proj_example
*CAP
1 io_oeb[10] 0.000922987
2 *419:io_oeb[1] 0.0360895
3 *40:9 0.0035431
4 *40:7 0.00262011
5 *40:5 0.0360895
6 *40:9 *78:9 0.0859645
7 *2:9 *40:9 0
8 *3:9 *40:9 0.0883531
*RES
1 *419:io_oeb[1] *40:5 256.766 
2 *40:5 *40:7 4.5 
3 *40:7 *40:9 224.276 
4 *40:9 io_oeb[10] 10.618 
*END

*D_NET *41 0.279413
*CONN
*P io_oeb[11] O
*I *419:io_oeb[2] O *D user_proj_example
*CAP
1 io_oeb[11] 0.000964261
2 *419:io_oeb[2] 0.0442018
3 *41:9 0.00441743
4 *41:7 0.00345317
5 *41:5 0.0442018
6 *2:9 *41:9 0.00100496
7 *3:9 *41:9 0.0855902
8 *4:9 *41:9 0.0955798
*RES
1 *419:io_oeb[2] *41:5 256.462 
2 *41:5 *41:7 4.5 
3 *41:7 *41:9 241.452 
4 *41:9 io_oeb[11] 10.922 
*END

*D_NET *42 0.285925
*CONN
*P io_oeb[12] O
*I *419:io_oeb[3] O *D user_proj_example
*CAP
1 io_oeb[12] 0.00104533
2 *419:io_oeb[3] 0.036
3 *42:9 0.00308366
4 *42:7 0.00203833
5 *42:5 0.036
6 *42:9 *43:9 0.0113096
7 *42:9 *80:9 0.100349
8 *42:9 *82:9 0.082439
9 *2:9 *42:9 0.012771
10 *6:9 *42:9 0.000889338
*RES
1 *419:io_oeb[3] *42:5 256.006 
2 *42:5 *42:7 4.5 
3 *42:7 *42:9 258.78 
4 *42:9 io_oeb[12] 11.378 
*END

*D_NET *43 0.297473
*CONN
*P io_oeb[13] O
*I *419:io_oeb[4] O *D user_proj_example
*CAP
1 io_oeb[13] 0.00102637
2 *419:io_oeb[4] 0.0360189
3 *43:9 0.00465592
4 *43:7 0.00362955
5 *43:5 0.0360189
6 *43:9 *82:9 0.000658563
7 *5:9 *43:9 0.0972703
8 *6:9 *43:9 0.106885
9 *42:9 *43:9 0.0113096
*RES
1 *419:io_oeb[4] *43:5 256.006 
2 *43:5 *43:7 4.5 
3 *43:7 *43:9 276.108 
4 *43:9 io_oeb[13] 11.378 
*END

*D_NET *44 0.196505
*CONN
*P io_oeb[14] O
*I *419:io_oeb[5] O *D user_proj_example
*CAP
1 io_oeb[14] 0.0362628
2 *419:io_oeb[5] 0.000778537
3 *44:11 0.0362628
4 *44:9 0.0374529
5 *44:7 0.0382314
6 *44:9 *79:9 0.0475168
*RES
1 *419:io_oeb[5] *44:7 9.554 
2 *44:7 *44:9 293.436 
3 *44:9 *44:11 4.5 
4 *44:11 io_oeb[14] 257.83 
*END

*D_NET *45 0.252024
*CONN
*P io_oeb[15] O
*I *419:io_oeb[6] O *D user_proj_example
*CAP
1 io_oeb[15] 0.0425837
2 *419:io_oeb[6] 0.000651171
3 *45:13 0.0425837
4 *45:11 0.00367173
5 *45:9 0.0043229
6 *7:9 *45:11 0.0801232
7 *8:9 *45:11 0.0762907
8 *10:9 *45:11 0.00179671
*RES
1 *419:io_oeb[6] *45:9 8.87 
2 *45:9 *45:11 213.94 
3 *45:11 *45:13 4.5 
4 *45:13 io_oeb[15] 291.878 
*END

*D_NET *46 0.202194
*CONN
*P io_oeb[16] O
*I *419:io_oeb[7] O *D user_proj_example
*CAP
1 io_oeb[16] 0.0425528
2 *419:io_oeb[7] 0.000804242
3 *46:13 0.0425528
4 *46:11 0.00278974
5 *46:9 0.00359399
6 *8:9 *46:11 0.0554638
7 *9:9 *46:11 0.0515252
8 *10:9 *46:11 0.0029112
*RES
1 *419:io_oeb[7] *46:9 9.934 
2 *46:9 *46:11 154.356 
3 *46:11 *46:13 4.5 
4 *46:13 io_oeb[16] 291.574 
*END

*D_NET *47 0.134951
*CONN
*P io_oeb[17] O
*I *419:io_oeb[8] O *D user_proj_example
*CAP
1 io_oeb[17] 0.0425091
2 *419:io_oeb[8] 0.000804242
3 *47:13 0.0425091
4 *47:11 0.00765351
5 *47:9 0.00845775
6 *9:9 *47:11 0.0314046
7 *10:9 *47:11 0.00161234
*RES
1 *419:io_oeb[8] *47:9 9.934 
2 *47:9 *47:11 95.988 
3 *47:11 *47:13 4.5 
4 *47:13 io_oeb[17] 291.27 
*END

*D_NET *48 0.106674
*CONN
*P io_oeb[18] O
*I *419:io_oeb[9] O *D user_proj_example
*CAP
1 io_oeb[18] 0.000999175
2 *419:io_oeb[9] 0.00212163
3 *48:17 0.00382228
4 *48:11 0.0428885
5 *48:9 0.0421871
6 *48:17 *86:15 0.0114592
7 *11:11 *48:17 0.00319566
*RES
1 *419:io_oeb[9] *48:9 14.554 
2 *48:9 *48:11 274.968 
3 *48:11 *48:17 46.772 
4 *48:17 io_oeb[18] 6.878 
*END

*D_NET *49 0.0942114
*CONN
*P io_oeb[19] O
*I *419:io_oeb[10] O *D user_proj_example
*CAP
1 io_oeb[19] 0.00127065
2 *419:io_oeb[10] 0.00277945
3 *49:15 0.0429525
4 *49:13 0.0444613
5 *419:io_in[11] *49:13 0.0027475
*RES
1 *419:io_oeb[10] *49:13 31.23 
2 *49:13 *49:15 285.988 
3 *49:15 io_oeb[19] 17.778 
*END

*D_NET *51 0.142625
*CONN
*P io_oeb[20] O
*I *419:io_oeb[11] O *D user_proj_example
*CAP
1 io_oeb[20] 0.0426185
2 *419:io_oeb[11] 0.000703956
3 *51:13 0.0426185
4 *51:11 0.00146683
5 *51:9 0.00217079
6 *51:11 *53:11 0.00131351
7 *51:11 *89:11 0.0203707
8 *51:11 *91:11 0.00110354