*SPEF "ieee 1481-1999"
*DESIGN "user_project_wrapper"
*DATE "11:11:11 Fri 11 11, 1111"
*VENDOR "OpenRCX"
*PROGRAM "Parallel Extraction"
*VERSION "1.0"
*DESIGN_FLOW "NAME_SCOPE LOCAL" "PIN_CAP NONE"
*DIVIDER /
*DELIMITER :
*BUS_DELIMITER []
*T_UNIT 1 NS
*C_UNIT 1 PF
*R_UNIT 1 OHM
*L_UNIT 1 HENRY

*NAME_MAP
*1 io_in[0]
*2 io_in[10]
*3 io_in[11]
*4 io_in[12]
*5 io_in[13]
*6 io_in[14]
*7 io_in[15]
*8 io_in[16]
*9 io_in[17]
*10 io_in[18]
*11 io_in[19]
*12 io_in[1]
*13 io_in[20]
*14 io_in[21]
*15 io_in[22]
*16 io_in[23]
*17 io_in[24]
*18 io_in[25]
*19 io_in[26]
*20 io_in[27]
*21 io_in[28]
*22 io_in[29]
*23 io_in[2]
*24 io_in[30]
*25 io_in[31]
*26 io_in[32]
*27 io_in[33]
*28 io_in[34]
*29 io_in[35]
*30 io_in[36]
*31 io_in[37]
*32 io_in[3]
*33 io_in[4]
*34 io_in[5]
*35 io_in[6]
*36 io_in[7]
*37 io_in[8]
*38 io_in[9]
*39 io_oeb[0]
*40 io_oeb[10]
*41 io_oeb[11]
*42 io_oeb[12]
*43 io_oeb[13]
*44 io_oeb[14]
*45 io_oeb[15]
*46 io_oeb[16]
*47 io_oeb[17]
*48 io_oeb[18]
*49 io_oeb[19]
*50 io_oeb[1]
*51 io_oeb[20]
*52 io_oeb[21]
*53 io_oeb[22]
*54 io_oeb[23]
*55 io_oeb[24]
*56 io_oeb[25]
*57 io_oeb[26]
*58 io_oeb[27]
*59 io_oeb[28]
*60 io_oeb[29]
*61 io_oeb[2]
*62 io_oeb[30]
*63 io_oeb[31]
*64 io_oeb[32]
*65 io_oeb[33]
*66 io_oeb[34]
*67 io_oeb[35]
*68 io_oeb[36]
*69 io_oeb[37]
*70 io_oeb[3]
*71 io_oeb[4]
*72 io_oeb[5]
*73 io_oeb[6]
*74 io_oeb[7]
*75 io_oeb[8]
*76 io_oeb[9]
*77 io_out[0]
*78 io_out[10]
*79 io_out[11]
*80 io_out[12]
*81 io_out[13]
*82 io_out[14]
*83 io_out[15]
*84 io_out[16]
*85 io_out[17]
*86 io_out[18]
*87 io_out[19]
*88 io_out[1]
*89 io_out[20]
*90 io_out[21]
*91 io_out[22]
*92 io_out[23]
*93 io_out[24]
*94 io_out[25]
*95 io_out[26]
*96 io_out[27]
*97 io_out[28]
*98 io_out[29]
*99 io_out[2]
*100 io_out[30]
*101 io_out[31]
*102 io_out[32]
*103 io_out[33]
*104 io_out[34]
*105 io_out[35]
*106 io_out[36]
*107 io_out[37]
*108 io_out[3]
*109 io_out[4]
*110 io_out[5]
*111 io_out[6]
*112 io_out[7]
*113 io_out[8]
*114 io_out[9]
*115 la_data_in[0]
*116 la_data_in[10]
*117 la_data_in[11]
*118 la_data_in[12]
*119 la_data_in[13]
*120 la_data_in[14]
*121 la_data_in[15]
*122 la_data_in[16]
*123 la_data_in[17]
*124 la_data_in[18]
*125 la_data_in[19]
*126 la_data_in[1]
*127 la_data_in[20]
*128 la_data_in[21]
*129 la_data_in[22]
*130 la_data_in[23]
*131 la_data_in[24]
*132 la_data_in[25]
*133 la_data_in[26]
*134 la_data_in[27]
*135 la_data_in[28]
*136 la_data_in[29]
*137 la_data_in[2]
*138 la_data_in[30]
*139 la_data_in[31]
*140 la_data_in[32]
*141 la_data_in[33]
*142 la_data_in[34]
*143 la_data_in[35]
*144 la_data_in[36]
*145 la_data_in[37]
*146 la_data_in[38]
*147 la_data_in[39]
*148 la_data_in[3]
*149 la_data_in[40]
*150 la_data_in[41]
*151 la_data_in[42]
*152 la_data_in[43]
*153 la_data_in[44]
*154 la_data_in[45]
*155 la_data_in[46]
*156 la_data_in[47]
*157 la_data_in[48]
*158 la_data_in[49]
*159 la_data_in[4]
*160 la_data_in[50]
*161 la_data_in[51]
*162 la_data_in[52]
*163 la_data_in[53]
*164 la_data_in[54]
*165 la_data_in[55]
*166 la_data_in[56]
*167 la_data_in[57]
*168 la_data_in[58]
*169 la_data_in[59]
*170 la_data_in[5]
*171 la_data_in[60]
*172 la_data_in[61]
*173 la_data_in[62]
*174 la_data_in[63]
*175 la_data_in[6]
*176 la_data_in[7]
*177 la_data_in[8]
*178 la_data_in[9]
*179 la_data_out[0]
*180 la_data_out[10]
*181 la_data_out[11]
*182 la_data_out[12]
*183 la_data_out[13]
*184 la_data_out[14]
*185 la_data_out[15]
*186 la_data_out[16]
*187 la_data_out[17]
*188 la_data_out[18]
*189 la_data_out[19]
*190 la_data_out[1]
*191 la_data_out[20]
*192 la_data_out[21]
*193 la_data_out[22]
*194 la_data_out[23]
*195 la_data_out[24]
*196 la_data_out[25]
*197 la_data_out[26]
*198 la_data_out[27]
*199 la_data_out[28]
*200 la_data_out[29]
*201 la_data_out[2]
*202 la_data_out[30]
*203 la_data_out[31]
*204 la_data_out[32]
*205 la_data_out[33]
*206 la_data_out[34]
*207 la_data_out[35]
*208 la_data_out[36]
*209 la_data_out[37]
*210 la_data_out[38]
*211 la_data_out[39]
*212 la_data_out[3]
*213 la_data_out[40]
*214 la_data_out[41]
*215 la_data_out[42]
*216 la_data_out[43]
*217 la_data_out[44]
*218 la_data_out[45]
*219 la_data_out[46]
*220 la_data_out[47]
*221 la_data_out[48]
*222 la_data_out[49]
*223 la_data_out[4]
*224 la_data_out[50]
*225 la_data_out[51]
*226 la_data_out[52]
*227 la_data_out[53]
*228 la_data_out[54]
*229 la_data_out[55]
*230 la_data_out[56]
*231 la_data_out[57]
*232 la_data_out[58]
*233 la_data_out[59]
*234 la_data_out[5]
*235 la_data_out[60]
*236 la_data_out[61]
*237 la_data_out[62]
*238 la_data_out[63]
*239 la_data_out[6]
*240 la_data_out[7]
*241 la_data_out[8]
*242 la_data_out[9]
*243 la_oenb[0]
*244 la_oenb[10]
*245 la_oenb[11]
*246 la_oenb[12]
*247 la_oenb[13]
*248 la_oenb[14]
*249 la_oenb[15]
*250 la_oenb[16]
*251 la_oenb[17]
*252 la_oenb[18]
*253 la_oenb[19]
*254 la_oenb[1]
*255 la_oenb[20]
*256 la_oenb[21]
*257 la_oenb[22]
*258 la_oenb[23]
*259 la_oenb[24]
*260 la_oenb[25]
*261 la_oenb[26]
*262 la_oenb[27]
*263 la_oenb[28]
*264 la_oenb[29]
*265 la_oenb[2]
*266 la_oenb[30]
*267 la_oenb[31]
*268 la_oenb[32]
*269 la_oenb[33]
*270 la_oenb[34]
*271 la_oenb[35]
*272 la_oenb[36]
*273 la_oenb[37]
*274 la_oenb[38]
*275 la_oenb[39]
*276 la_oenb[3]
*277 la_oenb[40]
*278 la_oenb[41]
*279 la_oenb[42]
*280 la_oenb[43]
*281 la_oenb[44]
*282 la_oenb[45]
*283 la_oenb[46]
*284 la_oenb[47]
*285 la_oenb[48]
*286 la_oenb[49]
*287 la_oenb[4]
*288 la_oenb[50]
*289 la_oenb[51]
*290 la_oenb[52]
*291 la_oenb[53]
*292 la_oenb[54]
*293 la_oenb[55]
*294 la_oenb[56]
*295 la_oenb[57]
*296 la_oenb[58]
*297 la_oenb[59]
*298 la_oenb[5]
*299 la_oenb[60]
*300 la_oenb[61]
*301 la_oenb[62]
*302 la_oenb[63]
*303 la_oenb[6]
*304 la_oenb[7]
*305 la_oenb[8]
*306 la_oenb[9]
*307 user_clock2
*308 user_irq[0]
*309 user_irq[1]
*310 user_irq[2]
*313 wb_clk_i
*314 wb_rst_i
*315 wbs_ack_o
*316 wbs_adr_i[0]
*317 wbs_adr_i[10]
*318 wbs_adr_i[11]
*319 wbs_adr_i[12]
*320 wbs_adr_i[13]
*321 wbs_adr_i[14]
*322 wbs_adr_i[15]
*323 wbs_adr_i[16]
*324 wbs_adr_i[17]
*325 wbs_adr_i[18]
*326 wbs_adr_i[19]
*327 wbs_adr_i[1]
*328 wbs_adr_i[20]
*329 wbs_adr_i[21]
*330 wbs_adr_i[22]
*331 wbs_adr_i[23]
*332 wbs_adr_i[24]
*333 wbs_adr_i[25]
*334 wbs_adr_i[26]
*335 wbs_adr_i[27]
*336 wbs_adr_i[28]
*337 wbs_adr_i[29]
*338 wbs_adr_i[2]
*339 wbs_adr_i[30]
*340 wbs_adr_i[31]
*341 wbs_adr_i[3]
*342 wbs_adr_i[4]
*343 wbs_adr_i[5]
*344 wbs_adr_i[6]
*345 wbs_adr_i[7]
*346 wbs_adr_i[8]
*347 wbs_adr_i[9]
*348 wbs_cyc_i
*349 wbs_dat_i[0]
*350 wbs_dat_i[10]
*351 wbs_dat_i[11]
*352 wbs_dat_i[12]
*353 wbs_dat_i[13]
*354 wbs_dat_i[14]
*355 wbs_dat_i[15]
*356 wbs_dat_i[16]
*357 wbs_dat_i[17]
*358 wbs_dat_i[18]
*359 wbs_dat_i[19]
*360 wbs_dat_i[1]
*361 wbs_dat_i[20]
*362 wbs_dat_i[21]
*363 wbs_dat_i[22]
*364 wbs_dat_i[23]
*365 wbs_dat_i[24]
*366 wbs_dat_i[25]
*367 wbs_dat_i[26]
*368 wbs_dat_i[27]
*369 wbs_dat_i[28]
*370 wbs_dat_i[29]
*371 wbs_dat_i[2]
*372 wbs_dat_i[30]
*373 wbs_dat_i[31]
*374 wbs_dat_i[3]
*375 wbs_dat_i[4]
*376 wbs_dat_i[5]
*377 wbs_dat_i[6]
*378 wbs_dat_i[7]
*379 wbs_dat_i[8]
*380 wbs_dat_i[9]
*381 wbs_dat_o[0]
*382 wbs_dat_o[10]
*383 wbs_dat_o[11]
*384 wbs_dat_o[12]
*385 wbs_dat_o[13]
*386 wbs_dat_o[14]
*387 wbs_dat_o[15]
*388 wbs_dat_o[16]
*389 wbs_dat_o[17]
*390 wbs_dat_o[18]
*391 wbs_dat_o[19]
*392 wbs_dat_o[1]
*393 wbs_dat_o[20]
*394 wbs_dat_o[21]
*395 wbs_dat_o[22]
*396 wbs_dat_o[23]
*397 wbs_dat_o[24]
*398 wbs_dat_o[25]
*399 wbs_dat_o[26]
*400 wbs_dat_o[27]
*401 wbs_dat_o[28]
*402 wbs_dat_o[29]
*403 wbs_dat_o[2]
*404 wbs_dat_o[30]
*405 wbs_dat_o[31]
*406 wbs_dat_o[3]
*407 wbs_dat_o[4]
*408 wbs_dat_o[5]
*409 wbs_dat_o[6]
*410 wbs_dat_o[7]
*411 wbs_dat_o[8]
*412 wbs_dat_o[9]
*413 wbs_sel_i[0]
*414 wbs_sel_i[1]
*415 wbs_sel_i[2]
*416 wbs_sel_i[3]
*417 wbs_stb_i
*418 wbs_we_i
*419 mprj

*PORTS
io_in[0] I
io_in[10] I
io_in[11] I
io_in[12] I
io_in[13] I
io_in[14] I
io_in[15] I
io_in[16] I
io_in[17] I
io_in[18] I
io_in[19] I
io_in[1] I
io_in[20] I
io_in[21] I
io_in[22] I
io_in[23] I
io_in[24] I
io_in[25] I
io_in[26] I
io_in[27] I
io_in[28] I
io_in[29] I
io_in[2] I
io_in[30] I
io_in[31] I
io_in[32] I
io_in[33] I
io_in[34] I
io_in[35] I
io_in[36] I
io_in[37] I
io_in[3] I
io_in[4] I
io_in[5] I
io_in[6] I
io_in[7] I
io_in[8] I
io_in[9] I
io_oeb[0] O
io_oeb[10] O
io_oeb[11] O
io_oeb[12] O
io_oeb[13] O
io_oeb[14] O
io_oeb[15] O
io_oeb[16] O
io_oeb[17] O
io_oeb[18] O
io_oeb[19] O
io_oeb[1] O
io_oeb[20] O
io_oeb[21] O
io_oeb[22] O
io_oeb[23] O
io_oeb[24] O
io_oeb[25] O
io_oeb[26] O
io_oeb[27] O
io_oeb[28] O
io_oeb[29] O
io_oeb[2] O
io_oeb[30] O
io_oeb[31] O
io_oeb[32] O
io_oeb[33] O
io_oeb[34] O
io_oeb[35] O
io_oeb[36] O
io_oeb[37] O
io_oeb[3] O
io_oeb[4] O
io_oeb[5] O
io_oeb[6] O
io_oeb[7] O
io_oeb[8] O
io_oeb[9] O
io_out[0] O
io_out[10] O
io_out[11] O
io_out[12] O
io_out[13] O
io_out[14] O
io_out[15] O
io_out[16] O
io_out[17] O
io_out[18] O
io_out[19] O
io_out[1] O
io_out[20] O
io_out[21] O
io_out[22] O
io_out[23] O
io_out[24] O
io_out[25] O
io_out[26] O
io_out[27] O
io_out[28] O
io_out[29] O
io_out[2] O
io_out[30] O
io_out[31] O
io_out[32] O
io_out[33] O
io_out[34] O
io_out[35] O
io_out[36] O
io_out[37] O
io_out[3] O
io_out[4] O
io_out[5] O
io_out[6] O
io_out[7] O
io_out[8] O
io_out[9] O
la_data_in[0] I
la_data_in[10] I
la_data_in[11] I
la_data_in[12] I
la_data_in[13] I
la_data_in[14] I
la_data_in[15] I
la_data_in[16] I
la_data_in[17] I
la_data_in[18] I
la_data_in[19] I
la_data_in[1] I
la_data_in[20] I
la_data_in[21] I
la_data_in[22] I
la_data_in[23] I
la_data_in[24] I
la_data_in[25] I
la_data_in[26] I
la_data_in[27] I
la_data_in[28] I
la_data_in[29] I
la_data_in[2] I
la_data_in[30] I
la_data_in[31] I
la_data_in[32] I
la_data_in[33] I
la_data_in[34] I
la_data_in[35] I
la_data_in[36] I
la_data_in[37] I
la_data_in[38] I
la_data_in[39] I
la_data_in[3] I
la_data_in[40] I
la_data_in[41] I
la_data_in[42] I
la_data_in[43] I
la_data_in[44] I
la_data_in[45] I
la_data_in[46] I
la_data_in[47] I
la_data_in[48] I
la_data_in[49] I
la_data_in[4] I
la_data_in[50] I
la_data_in[51] I
la_data_in[52] I
la_data_in[53] I
la_data_in[54] I
la_data_in[55] I
la_data_in[56] I
la_data_in[57] I
la_data_in[58] I
la_data_in[59] I
la_data_in[5] I
la_data_in[60] I
la_data_in[61] I
la_data_in[62] I
la_data_in[63] I
la_data_in[6] I
la_data_in[7] I
la_data_in[8] I
la_data_in[9] I
la_data_out[0] O
la_data_out[10] O
la_data_out[11] O
la_data_out[12] O
la_data_out[13] O
la_data_out[14] O
la_data_out[15] O
la_data_out[16] O
la_data_out[17] O
la_data_out[18] O
la_data_out[19] O
la_data_out[1] O
la_data_out[20] O
la_data_out[21] O
la_data_out[22] O
la_data_out[23] O
la_data_out[24] O
la_data_out[25] O
la_data_out[26] O
la_data_out[27] O
la_data_out[28] O
la_data_out[29] O
la_data_out[2] O
la_data_out[30] O
la_data_out[31] O
la_data_out[32] O
la_data_out[33] O
la_data_out[34] O
la_data_out[35] O
la_data_out[36] O
la_data_out[37] O
la_data_out[38] O
la_data_out[39] O
la_data_out[3] O
la_data_out[40] O
la_data_out[41] O
la_data_out[42] O
la_data_out[43] O
la_data_out[44] O
la_data_out[45] O
la_data_out[46] O
la_data_out[47] O
la_data_out[48] O
la_data_out[49] O
la_data_out[4] O
la_data_out[50] O
la_data_out[51] O
la_data_out[52] O
la_data_out[53] O
la_data_out[54] O
la_data_out[55] O
la_data_out[56] O
la_data_out[57] O
la_data_out[58] O
la_data_out[59] O
la_data_out[5] O
la_data_out[60] O
la_data_out[61] O
la_data_out[62] O
la_data_out[63] O
la_data_out[6] O
la_data_out[7] O
la_data_out[8] O
la_data_out[9] O
la_oenb[0] I
la_oenb[10] I
la_oenb[11] I
la_oenb[12] I
la_oenb[13] I
la_oenb[14] I
la_oenb[15] I
la_oenb[16] I
la_oenb[17] I
la_oenb[18] I
la_oenb[19] I
la_oenb[1] I
la_oenb[20] I
la_oenb[21] I
la_oenb[22] I
la_oenb[23] I
la_oenb[24] I
la_oenb[25] I
la_oenb[26] I
la_oenb[27] I
la_oenb[28] I
la_oenb[29] I
la_oenb[2] I
la_oenb[30] I
la_oenb[31] I
la_oenb[32] I
la_oenb[33] I
la_oenb[34] I
la_oenb[35] I
la_oenb[36] I
la_oenb[37] I
la_oenb[38] I
la_oenb[39] I
la_oenb[3] I
la_oenb[40] I
la_oenb[41] I
la_oenb[42] I
la_oenb[43] I
la_oenb[44] I
la_oenb[45] I
la_oenb[46] I
la_oenb[47] I
la_oenb[48] I
la_oenb[49] I
la_oenb[4] I
la_oenb[50] I
la_oenb[51] I
la_oenb[52] I
la_oenb[53] I
la_oenb[54] I
la_oenb[55] I
la_oenb[56] I
la_oenb[57] I
la_oenb[58] I
la_oenb[59] I
la_oenb[5] I
la_oenb[60] I
la_oenb[61] I
la_oenb[62] I
la_oenb[63] I
la_oenb[6] I
la_oenb[7] I
la_oenb[8] I
la_oenb[9] I
user_clock2 I
user_irq[0] O
user_irq[1] O
user_irq[2] O
wb_clk_i I
wb_rst_i I
wbs_ack_o O
wbs_adr_i[0] I
wbs_adr_i[10] I
wbs_adr_i[11] I
wbs_adr_i[12] I
wbs_adr_i[13] I
wbs_adr_i[14] I
wbs_adr_i[15] I
wbs_adr_i[16] I
wbs_adr_i[17] I
wbs_adr_i[18] I
wbs_adr_i[19] I
wbs_adr_i[1] I
wbs_adr_i[20] I
wbs_adr_i[21] I
wbs_adr_i[22] I
wbs_adr_i[23] I
wbs_adr_i[24] I
wbs_adr_i[25] I
wbs_adr_i[26] I
wbs_adr_i[27] I
wbs_adr_i[28] I
wbs_adr_i[29] I
wbs_adr_i[2] I
wbs_adr_i[30] I
wbs_adr_i[31] I
wbs_adr_i[3] I
wbs_adr_i[4] I
wbs_adr_i[5] I
wbs_adr_i[6] I
wbs_adr_i[7] I
wbs_adr_i[8] I
wbs_adr_i[9] I
wbs_cyc_i I
wbs_dat_i[0] I
wbs_dat_i[10] I
wbs_dat_i[11] I
wbs_dat_i[12] I
wbs_dat_i[13] I
wbs_dat_i[14] I
wbs_dat_i[15] I
wbs_dat_i[16] I
wbs_dat_i[17] I
wbs_dat_i[18] I
wbs_dat_i[19] I
wbs_dat_i[1] I
wbs_dat_i[20] I
wbs_dat_i[21] I
wbs_dat_i[22] I
wbs_dat_i[23] I
wbs_dat_i[24] I
wbs_dat_i[25] I
wbs_dat_i[26] I
wbs_dat_i[27] I
wbs_dat_i[28] I
wbs_dat_i[29] I
wbs_dat_i[2] I
wbs_dat_i[30] I
wbs_dat_i[31] I
wbs_dat_i[3] I
wbs_dat_i[4] I
wbs_dat_i[5] I
wbs_dat_i[6] I
wbs_dat_i[7] I
wbs_dat_i[8] I
wbs_dat_i[9] I
wbs_dat_o[0] O
wbs_dat_o[10] O
wbs_dat_o[11] O
wbs_dat_o[12] O
wbs_dat_o[13] O
wbs_dat_o[14] O
wbs_dat_o[15] O
wbs_dat_o[16] O
wbs_dat_o[17] O
wbs_dat_o[18] O
wbs_dat_o[19] O
wbs_dat_o[1] O
wbs_dat_o[20] O
wbs_dat_o[21] O
wbs_dat_o[22] O
wbs_dat_o[23] O
wbs_dat_o[24] O
wbs_dat_o[25] O
wbs_dat_o[26] O
wbs_dat_o[27] O
wbs_dat_o[28] O
wbs_dat_o[29] O
wbs_dat_o[2] O
wbs_dat_o[30] O
wbs_dat_o[31] O
wbs_dat_o[3] O
wbs_dat_o[4] O
wbs_dat_o[5] O
wbs_dat_o[6] O
wbs_dat_o[7] O
wbs_dat_o[8] O
wbs_dat_o[9] O
wbs_sel_i[0] I
wbs_sel_i[1] I
wbs_sel_i[2] I
wbs_sel_i[3] I
wbs_stb_i I
wbs_we_i I

*D_NET *2 0.227314
*CONN
*P io_in[10] I
*I *419:io_in[1] I *D user_proj_example
*CAP
1 io_in[10] 0.0010325
2 *419:io_in[1] 0.0401424
3 *2:11 0.0401424
4 *2:9 0.017501
5 *2:7 0.0185335
6 *2:9 *38:9 0
7 *2:9 *78:9 0.109962
*RES
1 io_in[10] *2:7 12.664 
2 *2:7 *2:9 290.888 
3 *2:9 *2:11 4.5 
4 *2:11 *419:io_in[1] 351.78 
*END

*D_NET *3 0.320948
*CONN
*P io_in[11] I
*I *419:io_in[2] I *D user_proj_example
*CAP
1 io_in[11] 0.00110032
2 *419:io_in[2] 0.0400746
3 *3:11 0.0400746
4 *3:9 0.00311899
5 *3:7 0.0042193
6 *3:9 *38:9 0.00223963
7 *3:9 *40:9 0.116704
8 *3:9 *41:9 0.113417
*RES
1 io_in[11] *3:7 13.288 
2 *3:7 *3:9 315.848 
3 *3:9 *3:11 4.5 
4 *3:11 *419:io_in[2] 351.156 
*END

*D_NET *4 0.359926
*CONN
*P io_in[12] I
*I *419:io_in[3] I *D user_proj_example
*CAP
1 io_in[12] 0.00115498
2 *419:io_in[3] 0.0400509
3 *4:11 0.0400509
4 *4:9 0.00248676
5 *4:7 0.00364174
6 *4:9 *5:9 0.0139155
7 *4:9 *38:9 0.00200366
8 *4:9 *41:9 0.126707
9 *4:9 *80:9 0.129914
*RES
1 io_in[12] *4:7 13.704 
2 *4:7 *4:9 340.808 
3 *4:9 *4:11 4.5 
4 *4:11 *419:io_in[3] 350.74 
*END

*D_NET *5 0.27407
*CONN
*P io_in[13] I
*I *419:io_in[4] I *D user_proj_example
*CAP
1 io_in[13] 0.00114566
2 *419:io_in[4] 0.0401034
3 *5:11 0.0401034
4 *5:9 0.0237567
5 *5:7 0.0249024
6 *5:9 *43:9 0.130143
7 *4:9 *5:9 0.0139155
*RES
1 io_in[13] *5:7 13.704 
2 *5:7 *5:9 365.768 
3 *5:9 *5:11 4.5 
4 *5:11 *419:io_in[4] 350.74 
*END

*D_NET *6 0.322273
*CONN
*P io_in[14] I
*I *419:io_in[5] I *D user_proj_example
*CAP
1 io_in[14] 0.00146141
2 *419:io_in[5] 0.0508773
3 *6:11 0.0508773
4 *6:9 0.0247627
5 *6:7 0.0262241
6 *6:9 *42:9 0.0250869
7 *6:9 *43:9 0.142983
*RES
1 io_in[14] *6:7 14.12 
2 *6:7 *6:9 390.728 
3 *6:9 *6:11 4.5 
4 *6:11 *419:io_in[5] 350.324 
*END

*D_NET *7 0.252277
*CONN
*P io_in[15] I
*I *419:io_in[6] I *D user_proj_example
*CAP
1 io_in[15] 0.0477282
2 *419:io_in[6] 0.000821406
3 *7:9 0.0256034
4 *7:7 0.024782
5 *7:5 0.0477282
6 *7:9 *45:9 0.105614
*RES
1 io_in[15] *7:5 402.74 
2 *7:5 *7:7 4.5 
3 *7:7 *7:9 347.256 
4 *7:9 *419:io_in[6] 11.416 
*END

*D_NET *8 0.284421
*CONN
*P io_in[16] I
*I *419:io_in[7] I *D user_proj_example
*CAP
1 io_in[16] 0.0477001
2 *419:io_in[7] 0.000890268
3 *8:9 0.00623215
4 *8:7 0.00534188
5 *8:5 0.0477001
6 *8:9 *10:9 0.00238558
7 *8:9 *45:9 0.100654
8 *8:9 *46:9 0.0735177
*RES
1 io_in[16] *8:5 402.324 
2 *8:5 *8:7 4.5 
3 *8:7 *8:9 266.76 
4 *8:9 *419:io_in[7] 11.832 
*END

*D_NET *9 0.219309
*CONN
*P io_in[17] I
*I *419:io_in[8] I *D user_proj_example
*CAP
1 io_in[17] 0.047672
2 *419:io_in[8] 0.000938756
3 *9:9 0.0063178
4 *9:7 0.00537904
5 *9:5 0.047672
6 *9:9 *10:9 0.00119035
7 *9:9 *46:9 0.0685035
8 *9:9 *47:9 0.0416357
*RES
1 io_in[17] *9:5 401.908 
2 *9:5 *9:7 4.5 
3 *9:7 *9:9 186.264 
4 *9:9 *419:io_in[8] 12.248 
*END

*D_NET *10 0.125841
*CONN
*P io_in[18] I
*I *419:io_in[9] I *D user_proj_example
*CAP
1 io_in[18] 0.047769
2 *419:io_in[9] 0.000821406
3 *10:9 0.00950508
4 *10:7 0.00868368
5 *10:5 0.047769
6 *10:9 *45:9 0.00269685
7 *10:9 *46:9 0.00324032
8 *10:9 *47:9 0.00177935
9 *8:9 *10:9 0.00238558
10 *9:9 *10:9 0.00119035
*RES
1 io_in[18] *10:5 402.74 
2 *10:5 *10:7 4.5 
3 *10:7 *10:9 105.768 
4 *10:9 *419:io_in[9] 11.416 
*END

*D_NET *11 0.105586
*CONN
*P io_in[19] I
*I *419:io_in[10] I *D user_proj_example
*CAP
1 io_in[19] 0.0036719
2 *419:io_in[10] 0.0473111
3 *11:11 0.050983
4 *11:11 *48:17 0.00361997
*RES
1 io_in[19] *11:11 43.892 
2 *11:11 *419:io_in[10] 400.036 
*END

*D_NET *13 0.116017
*CONN
*P io_in[20] I
*I *419:io_in[11] I *D user_proj_example
*CAP
1 io_in[20] 0.00449588
2 *419:io_in[11] 0.00259238
3 *13:13 0.0491452
4 *13:11 0.0510487
5 *419:io_in[11] *49:11 0.00403319
6 *419:io_in[11] *89:9 0.00470139
*RES
1 io_in[20] *13:11 47.844 
2 *13:11 *13:13 393.224 
3 *13:13 *419:io_in[11] 41.812 
*END

*D_NET *14 0.163333
*CONN
*P io_in[21] I
*I *419:io_in[12] I *D user_proj_example
*CAP
1 io_in[21] 0.0478137
2 *419:io_in[12] 0.000797162
3 *14:9 0.00904823
4 *14:7 0.00825107
5 *14:5 0.0478137
6 *14:9 *16:9 0.000479615
7 *14:9 *51:9 0.0376925
8 *14:9 *54:9 0.00896977
9 *14:9 *92:9 0.00246752
*RES
1 io_in[21] *14:5 402.948 
2 *14:5 *14:7 4.5 
3 *14:7 *14:9 135.928 
4 *14:9 *419:io_in[12] 11.208 
*END

*D_NET *15 0.255061
*CONN
*P io_in[22] I
*I *419:io_in[13] I *D user_proj_example
*CAP
1 io_in[22] 0.0475051
2 *419:io_in[13] 0.00100379
3 *15:9 0.00424866
4 *15:7 0.00324487
5 *15:5 0.0475051
6 *15:9 *51:9 0.00017581
7 *15:9 *52:9 0.0699057
8 *15:9 *89:9 0.000965184
9 *15:9 *91:9 0.0805072
*RES
1 io_in[22] *15:5 401.7 
2 *15:5 *15:7 4.5 
3 *15:7 *15:9 216.424 
4 *15:9 *419:io_in[13] 12.456 
*END

*D_NET *16 0.320161
*CONN
*P io_in[23] I
*I *419:io_in[14] I *D user_proj_example
*CAP
1 io_in[23] 0.0475778
2 *419:io_in[14] 0.000910661
3 *16:9 0.00405283
4 *16:7 0.00314217
5 *16:5 0.0475778
6 *16:9 *51:9 0.00175067
7 *16:9 *53:9 0.101986
8 *16:9 *92:9 0.112684
9 *14:9 *16:9 0.000479615
*RES
1 io_in[23] *16:5 402.324 
2 *16:5 *16:7 4.5 
3 *16:7 *16:9 296.92 
4 *16:9 *419:io_in[14] 11.832 
*END

*D_NET *17 0.3182
*CONN
*P io_in[24] I
*I *419:io_in[15] I *D user_proj_example
*CAP
1 io_in[24] 0.000722589
2 *419:io_in[15] 0.0405236
3 *17:19 0.0405236
4 *17:17 0.0112819
5 *17:15 0.0115835
6 *17:9 0.00678225
7 *17:7 0.00720324
8 *17:9 *18:9 0.0629263
9 *17:9 *93:17 0.0839077
10 *17:15 *20:7 0.00039309
11 *17:17 *93:9 0.0523519
*RES
1 io_in[24] *17:7 11 
2 *17:7 *17:9 235.768 
3 *17:9 *17:15 11.184 
4 *17:15 *17:17 161.928 
5 *17:17 *17:19 4.5 
6 *17:19 *419:io_in[15] 354.692 
*END

*D_NET *18 0.311928
*CONN
*P io_in[25] I
*I *419:io_in[16] I *D user_proj_example
*CAP
1 io_in[25] 0.000699983
2 *419:io_in[16] 0.0406306
3 *18:19 0.0406306
4 *18:17 0.00190085
5 *18:15 0.00221216
6 *18:9 0.00468313
7 *18:7 0.00507179
8 *419:io_in[16] io_out[29] 3.58433e-05
9 *18:9 *19:9 0.0631814
10 *18:9 *56:17 0.00453784
11 *18:9 *93:17 0.00486583
12 *18:9 *95:17 0.00602424
13 *18:15 *21:7 7.51144e-05
14 *18:17 *55:9 0.0377247
15 *18:17 *58:9 0.00543681
16 *18:17 *94:9 0.0312908
17 *17:9 *18:9 0.0629263
*RES
1 io_in[25] *18:7 10.792 
2 *18:7 *18:9 236.6 
3 *18:9 *18:15 10.768 
4 *18:15 *18:17 103.688 
5 *18:17 *18:19 4.5 
6 *18:19 *419:io_in[16] 355.316 
*END

*D_NET *19 0.27229
*CONN
*P io_in[26] I
*I *419:io_in[17] I *D user_proj_example
*CAP
1 io_in[26] 0.000698892
2 *419:io_in[17] 0.0408101
3 *19:19 0.0438266
4 *19:15 0.00324811
5 *19:9 0.00265982
6 *19:7 0.00312706
7 *19:9 *56:17 0.0839079
8 *19:9 *57:15 0.00482441
9 *19:9 *95:17 0.00680333
10 *19:15 *22:7 0
11 *19:19 *56:9 0.0149645
12 *19:19 *59:9 0.00384985
13 *19:19 *95:15 0.000387776
14 *18:9 *19:9 0.0631814
*RES
1 io_in[26] *19:7 10.584 
2 *19:7 *19:9 237.432 
3 *19:9 *19:15 10.352 
4 *19:15 *19:19 49.948 
5 *19:19 *419:io_in[17] 355.94 
*END

*D_NET *20 0.255943
*CONN
*P io_in[27] I
*I *419:io_in[18] I *D user_proj_example
*CAP
1 io_in[27] 0.00110474
2 *419:io_in[18] 0.0407441
3 *20:11 0.0407441
4 *20:9 0.00228295
5 *20:7 0.00338769
6 *20:9 *21:9 0.0049683
7 *20:9 *56:9 0.00393939
8 *20:9 *59:9 0.0376796
9 *20:9 *94:17 0.0410966
10 *20:9 *96:9 0.0796024
11 *17:15 *20:7 0.00039309
*RES
1 io_in[27] *20:7 12.04 
2 *20:7 *20:9 225.368 
3 *20:9 *20:11 4.5 
4 *20:11 *419:io_in[18] 355.732 
*END

*D_NET *21 0.205345
*CONN
*P io_in[28] I
*I *419:io_in[19] I *D user_proj_example
*CAP
1 io_in[28] 0.00105495
2 *419:io_in[19] 0.0407893
3 *21:11 0.0407893
4 *21:9 0.00202501
5 *21:7 0.00307996
6 *21:9 *57:15 0
7 *21:9 *59:9 0.046115
8 *21:9 *60:9 0.0147057
9 *21:9 *94:17 0.0097071
10 *21:9 *95:17 0.042035
11 *18:15 *21:7 7.51144e-05
12 *20:9 *21:9 0.0049683
*RES
1 io_in[28] *21:7 11.624 
2 *21:7 *21:9 167.96 
3 *21:9 *21:11 4.5 
4 *21:11 *419:io_in[19] 356.148 
*END

*D_NET *22 0.185245
*CONN
*P io_in[29] I
*I *419:io_in[20] I *D user_proj_example
*CAP
1 io_in[29] 0.00118424
2 *419:io_in[20] 0.0515443
3 *22:11 0.0515443
4 *22:9 0.00231775
5 *22:7 0.00350199
6 *22:9 *24:9 0.0012039
7 *22:9 *55:9 0.000239772
8 *22:9 *93:9 0.000185771
9 *22:9 *95:15 0.00144143
10 *22:9 *97:9 0.0384374
11 *22:9 *98:9 0.0336441
12 *19:15 *22:7 0
*RES
1 io_in[29] *22:7 12.872 
2 *22:7 *22:9 110.552 
3 *22:9 *22:11 4.5 
4 *22:11 *419:io_in[20] 354.9 
*END

*D_NET *24 0.105325
*CONN
*P io_in[30] I
*I *419:io_in[21] I *D user_proj_example
*CAP
1 io_in[30] 0.000900169
2 *419:io_in[21] 0.0406143
3 *24:11 0.0406143
4 *24:9 0.0016733
5 *24:7 0.00257347
6 *419:io_in[21] io_oeb[30] 0.000114373
7 *24:9 io_oeb[30] 3.91403e-05
8 *24:9 *58:9 0.000645195
9 *24:9 *59:9 0.00997198
10 *24:9 *60:9 0.000164794
11 *24:9 *97:9 0.00166588
12 *24:9 *98:9 0.0004981
13 *24:9 *100:11 0.00464648
14 *22:9 *24:9 0.0012039
*RES
1 io_in[30] *24:7 12.04 
2 *24:7 *24:9 53.144 
3 *24:9 *24:11 4.5 
4 *24:11 *419:io_in[21] 355.732 
*END

*D_NET *25 0.0841026
*CONN
*P io_in[31] I
*I *419:io_in[22] I *D user_proj_example
*CAP
1 io_in[31] 0.0015278
2 *419:io_in[22] 0.0405235
3 *25:11 0.0420513
*RES
1 io_in[31] *25:11 21.636 
2 *25:11 *419:io_in[22] 354.692 
*END

*D_NET *26 0.111349
*CONN
*P io_in[32] I
*I *419:io_in[23] I *D user_proj_example
*CAP
1 io_in[32] 0.0406839
2 *419:io_in[23] 0.000874252
3 *26:9 0.00461531
4 *26:7 0.00374105
5 *26:5 0.0406839
6 *26:9 *27:9 0
7 *26:9 *28:9 0.000969664
8 *26:9 *64:9 0.0191127
9 *26:9 *65:9 0.000199022
10 *26:9 *66:9 0.000468783
*RES
1 io_in[32] *26:5 356.564 
2 *26:5 *26:7 4.5 
3 *26:7 *26:9 61.88 
4 *26:9 *419:io_in[23] 11.208 
*END

*D_NET *27 0.147362
*CONN
*P io_in[33] I
*I *419:io_in[24] I *D user_proj_example
*CAP
1 io_in[33] 0.0409619
2 *419:io_in[24] 0.000716007
3 *27:9 0.0102274
4 *27:7 0.00951143
5 *27:5 0.0409619
6 *27:5 *107:15 0.000212667
7 *27:9 *419:io_in[28] 0.000555084
8 *27:9 *65:9 0.0419056
9 *27:9 *107:15 0.0023099
10 *26:9 *27:9 0
*RES
1 io_in[33] *27:5 358.02 
2 *27:5 *27:7 4.5 
3 *27:7 *27:9 119.288 
4 *27:9 *419:io_in[24] 9.752 
*END

*D_NET *28 0.214636
*CONN
*P io_in[34] I
*I *419:io_in[25] I *D user_proj_example
*CAP
1 io_in[34] 0.0409475
2 *419:io_in[25] 0.000804252
3 *28:9 0.00334743
4 *28:7 0.00254318
5 *28:5 0.0409475
6 *28:9 *65:9 0.0601302
7 *28:9 *66:9 0.0649467
8 *26:9 *28:9 0.000969664
*RES
1 io_in[34] *28:5 357.604 
2 *28:5 *28:7 4.5 
3 *28:7 *28:9 176.696 
4 *28:9 *419:io_in[25] 10.168 
*END

*D_NET *29 0.262693
*CONN
*P io_in[35] I
*I *419:io_in[26] I *D user_proj_example
*CAP
1 io_in[35] 0.0408378
2 *419:io_in[26] 0.000892497
3 *29:9 0.00326247
4 *29:7 0.00236998
5 *29:5 0.0408378
6 *29:9 *64:9 0.000555908
7 *29:9 *66:9 0.0830832
8 *29:9 *105:9 0.090853
*RES
1 io_in[35] *29:5 357.188 
2 *29:5 *29:7 4.5 
3 *29:7 *29:9 234.104 
4 *29:9 *419:io_in[26] 10.584 
*END

*D_NET *30 0.235239
*CONN
*P io_in[36] I
*I *419:io_in[27] I *D user_proj_example
*CAP
1 io_in[36] 0.0407054
2 *419:io_in[27] 0.00102486
3 *30:9 0.0142928
4 *30:7 0.0132679
5 *30:5 0.0407054
6 *30:9 *31:9 0
7 *30:9 *64:9 0.0117689
8 *30:9 *67:9 0.106124
9 *30:9 *107:17 0.00734955
*RES
1 io_in[36] *30:5 356.564 
2 *30:5 *30:7 4.5 
3 *30:7 *30:9 291.512 
4 *30:9 *419:io_in[27] 11.208 
*END

*D_NET *31 0.254032
*CONN
*P io_in[37] I
*I *419:io_in[28] I *D user_proj_example
*CAP
1 io_in[37] 0.0404611
2 *419:io_in[28] 0.00209902
3 *31:9 0.0234133
4 *31:7 0.0213143
5 *31:5 0.0404611
6 *419:io_in[28] io_oeb[32] 0
7 *419:io_in[28] *107:15 6.8763e-06
8 *31:9 *64:9 3.58435e-05
9 *31:9 *107:17 0.125686
10 *27:9 *419:io_in[28] 0.000555084
11 *30:9 *31:9 0
*RES
1 io_in[37] *31:5 355.108 
2 *31:5 *31:7 4.5 
3 *31:7 *31:9 342.264 
4 *31:9 *419:io_in[28] 28.528 
*END

*D_NET *38 0.170597
*CONN
*P io_in[9] I
*I *419:io_in[0] I *D user_proj_example
*CAP
1 io_in[9] 0.00164432
2 *419:io_in[0] 0.0398971
3 *38:11 0.0398971
4 *38:9 0.0218123
5 *38:7 0.0234566
6 *38:9 *40:9 0.00053638
7 *38:9 *41:9 0.00130427
8 *38:9 *42:9 0.0350636
9 *38:9 *78:9 0
10 *38:9 *80:9 0.00274191
11 *2:9 *38:9 0
12 *3:9 *38:9 0.00223963
13 *4:9 *38:9 0.00200366
*RES
1 io_in[9] *38:7 14.328 
2 *38:7 *38:9 265.928 
3 *38:9 *38:11 4.5 
4 *38:11 *419:io_in[0] 350.116 
*END

*D_NET *40 0.318732
*CONN
*P io_oeb[10] O
*I *419:io_oeb[1] O *D user_proj_example
*CAP
1 io_oeb[10] 0.00107771
2 *419:io_oeb[1] 0.0400972
3 *40:9 0.00394908
4 *40:7 0.00287137
5 *40:5 0.0400972
6 *40:9 *78:9 0.1134
7 *3:9 *40:9 0.116704
8 *38:9 *40:9 0.00053638
*RES
1 *419:io_oeb[1] *40:5 351.364 
2 *40:5 *40:7 4.5 
3 *40:7 *40:9 307.736 
4 *40:9 io_oeb[10] 13.08 
*END

*D_NET *41 0.331898
*CONN
*P io_oeb[11] O
*I *419:io_oeb[2] O *D user_proj_example
*CAP
1 io_oeb[11] 0.00112292
2 *419:io_oeb[2] 0.0400735
3 *41:9 0.00516121
4 *41:7 0.00403829
5 *41:5 0.0400735
6 *3:9 *41:9 0.113417
7 *4:9 *41:9 0.126707
8 *38:9 *41:9 0.00130427
*RES
1 *419:io_oeb[2] *41:5 350.948 
2 *41:5 *41:7 4.5 
3 *41:7 *41:9 332.488 
4 *41:9 io_oeb[11] 13.496 
*END

*D_NET *42 0.310173
*CONN
*P io_oeb[12] O
*I *419:io_oeb[3] O *D user_proj_example
*CAP
1 io_oeb[12] 0.00124356
2 *419:io_oeb[3] 0.0400057
3 *42:9 0.0183454
4 *42:7 0.0171018
5 *42:5 0.0400057
6 *42:9 *80:9 0.13332
7 *6:9 *42:9 0.0250869
8 *38:9 *42:9 0.0350636
*RES
1 *419:io_oeb[3] *42:5 350.324 
2 *42:5 *42:7 4.5 
3 *42:7 *42:9 357.448 
4 *42:9 io_oeb[12] 14.12 
*END

*D_NET *43 0.376788
*CONN
*P io_oeb[13] O
*I *419:io_oeb[4] O *D user_proj_example
*CAP
1 io_oeb[13] 0.00116827
2 *419:io_oeb[4] 0.0400808
3 *43:9 0.00531167
4 *43:7 0.0041434
5 *43:5 0.0400808
6 *43:9 *80:9 0.0128769
7 *5:9 *43:9 0.130143
8 *6:9 *43:9 0.142983
*RES
1 *419:io_oeb[4] *43:5 350.532 
2 *43:5 *43:7 4.5 
3 *43:7 *43:9 382.408 
4 *43:9 io_oeb[13] 13.912 
*END

*D_NET *44 0.232206
*CONN
*P io_oeb[14] O
*I *419:io_oeb[5] O *D user_proj_example
*CAP
1 io_oeb[14] 0.040321
2 *419:io_oeb[5] 0.000919485
3 *44:11 0.040321
4 *44:9 0.0424795
5 *44:7 0.043399
6 *44:9 *79:9 0.0647662
*RES
1 *419:io_oeb[5] *44:7 11.624 
2 *44:7 *44:9 407.368 
3 *44:9 *44:11 4.5 
4 *44:11 io_oeb[14] 352.82 
*END

*D_NET *45 0.314704
*CONN
*P io_oeb[15] O
*I *419:io_oeb[6] O *D user_proj_example
*CAP
1 io_oeb[15] 0.0477243
2 *419:io_oeb[6] 0.000866043
3 *45:11 0.0477243
4 *45:9 0.00427976
5 *45:7 0.0051458
6 *7:9 *45:9 0.105614
7 *8:9 *45:9 0.100654
8 *10:9 *45:9 0.00269685
*RES
1 *419:io_oeb[6] *45:7 11.624 
2 *45:7 *45:9 293.592 
3 *45:9 *45:11 4.5 
4 *45:11 io_oeb[15] 402.532 
*END

*D_NET *46 0.249209
*CONN
*P io_oeb[16] O
*I *419:io_oeb[7] O *D user_proj_example
*CAP
1 io_oeb[16] 0.0476962
2 *419:io_oeb[7] 0.000914512
3 *46:11 0.0476962
4 *46:9 0.00336292
5 *46:7 0.00427743
6 *8:9 *46:9 0.0735177
7 *9:9 *46:9 0.0685035
8 *10:9 *46:9 0.00324032
*RES
1 *419:io_oeb[7] *46:7 12.04 
2 *46:7 *46:9 213.096 
3 *46:9 *46:11 4.5 
4 *46:11 io_oeb[16] 402.116 
*END

*D_NET *47 0.158061
*CONN
*P io_oeb[17] O
*I *419:io_oeb[8] O *D user_proj_example
*CAP
1 io_oeb[17] 0.0476274
2 *419:io_oeb[8] 0.000963
3 *47:11 0.0476274
4 *47:9 0.00873246
5 *47:7 0.00969546
6 *9:9 *47:9 0.0416357
7 *10:9 *47:9 0.00177935
*RES
1 *419:io_oeb[8] *47:7 12.456 
2 *47:7 *47:9 132.808 
3 *47:9 *47:11 4.5 
4 *47:11 io_oeb[17] 401.7 
*END

*D_NET *48 0.122416
*CONN
*P io_oeb[18] O
*I *419:io_oeb[9] O *D user_proj_example
*CAP
1 io_oeb[18] 0.00111232
2 *419:io_oeb[9] 0.00123282
3 *48:17 0.0041463
4 *48:15 0.00303398
5 *48:13 0.0464018
6 *48:11 0.0476346
7 *48:17 *86:9 0.015234
8 *11:11 *48:17 0.00361997
*RES
1 *419:io_oeb[9] *48:11 19.348 
2 *48:11 *48:13 391.976 
3 *48:13 *48:15 4.5 
4 *48:15 *48:17 50.232 
5 *48:17 io_oeb[18] 13.912 
*END

*D_NET *49 0.10665
*CONN
*P io_oeb[19] O
*I *419:io_oeb[10] O *D user_proj_example
*CAP
1 io_oeb[19] 0.0014176
2 *419:io_oeb[10] 0.00321272
3 *49:13 0.0480955
4 *49:11 0.0498906
5 *419:io_in[11] *49:11 0.00403319
*RES
1 *419:io_oeb[10] *49:11 40.564 
2 *49:11 *49:13 394.472 
3 *49:13 io_oeb[19] 21.012 
*END

*D_NET *51 0.170209
*CONN
*P io_oeb[20] O
*I *419:io_oeb[11] O *D user_proj_example
*CAP
1 io_oeb[20] 0.0477486
2 *419:io_oeb[11] 0.000821406
3 *51:11 0.0477486
4 *51:9 0.00181442
5 *51:7 0.00263583
6 *51:9 *53:9 0.00158389
7 *51:9 *89:9 0.0271248
8 *51:9 *91:9 0.00111201
9 *14:9 *51:9 0.0376925
10 *15:9 *51:9 0.00017581
11 *16:9 *51:9 0.00175067
*RES
1 *419:io_oeb[11] *51:7 11.416 
2 *51:7 *51:9 109.096 
3 *51:9 *51:11 4.5 
4 *51:11 io_oeb[20] 402.74 
*END

*D_NET *52 0.233443
*CONN
*P io_oeb[21] O
*I *419:io_oeb[12] O *D user_proj_example
*CAP
1 io_oeb[21] 0.0474808