*SPEF "ieee 1481-1999"
*DESIGN "user_proj_example"
*DATE "11:11:11 Fri 11 11, 1111"
*VENDOR "OpenRCX"
*PROGRAM "Parallel Extraction"
*VERSION "1.0"
*DESIGN_FLOW "NAME_SCOPE LOCAL" "PIN_CAP NONE"
*DIVIDER /
*DELIMITER :
*BUS_DELIMITER []
*T_UNIT 1 NS
*C_UNIT 1 PF
*R_UNIT 1 OHM
*L_UNIT 1 HENRY

*NAME_MAP
*1 io_in[0]
*2 io_in[10]
*3 io_in[11]
*4 io_in[12]
*5 io_in[13]
*6 io_in[14]
*7 io_in[15]
*8 io_in[16]
*9 io_in[17]
*10 io_in[18]
*11 io_in[19]
*12 io_in[1]
*13 io_in[20]
*14 io_in[21]
*15 io_in[22]
*16 io_in[23]
*17 io_in[24]
*18 io_in[25]
*19 io_in[26]
*20 io_in[27]
*21 io_in[28]
*22 io_in[2]
*23 io_in[3]
*24 io_in[4]
*25 io_in[5]
*26 io_in[6]
*27 io_in[7]
*28 io_in[8]
*29 io_in[9]
*30 net54
*31 net62
*32 net63
*33 net64
*34 net65
*35 net66
*36 net67
*37 net68
*38 net69
*39 net70
*40 net71
*41 net55
*42 net72
*43 net73
*44 net74
*45 net75
*46 net76
*47 net77
*48 net78
*49 net79
*50 net80
*51 net56
*52 net57
*53 net58
*54 net59
*55 net60
*56 net61
*57 net81
*58 net82
*59 io_out[0]
*60 net32
*61 net33
*62 net34
*63 net35
*64 net36
*65 net37
*66 net38
*67 net39
*68 net40
*69 net41
*70 io_out[1]
*71 net42
*72 net43
*73 net44
*74 net45
*75 net46
*76 net47
*77 net48
*78 net49
*79 net50
*80 io_out[2]
*81 io_out[3]
*82 io_out[4]
*83 io_out[5]
*84 io_out[6]
*85 io_out[7]
*86 net30
*87 net31
*88 net51
*89 net52
*90 net53
*93 net1
*94 net10
*95 net11
*96 net12
*97 net13
*98 net14
*99 net15
*100 net16
*101 net17
*102 net18
*103 net19
*104 net2
*105 net20
*106 net21
*107 net22
*108 net23
*109 net24
*110 net25
*111 net26
*112 net27
*113 net28
*114 net29
*115 net3
*116 net4
*117 net5
*118 net6
*119 net7
*120 net8
*121 net9
*122 ANTENNA_1
*123 ANTENNA_2
*124 ANTENNA_gf180_sram_8x1024_addr0\[0\]
*125 ANTENNA_gf180_sram_8x1024_addr0\[1\]
*126 ANTENNA_gf180_sram_8x1024_addr0\[2\]
*127 ANTENNA_gf180_sram_8x1024_addr0\[3\]
*128 ANTENNA_gf180_sram_8x1024_addr0\[4\]
*129 ANTENNA_gf180_sram_8x1024_addr0\[5\]
*130 ANTENNA_gf180_sram_8x1024_addr0\[6\]
*131 ANTENNA_gf180_sram_8x1024_addr0\[7\]
*132 ANTENNA_gf180_sram_8x1024_addr0\[8\]
*133 ANTENNA_gf180_sram_8x1024_addr0\[9\]
*134 ANTENNA_gf180_sram_8x1024_clk0
*135 ANTENNA_gf180_sram_8x1024_csb0
*136 ANTENNA_gf180_sram_8x1024_din0\[0\]
*137 ANTENNA_gf180_sram_8x1024_din0\[1\]
*138 ANTENNA_gf180_sram_8x1024_din0\[2\]
*139 ANTENNA_gf180_sram_8x1024_din0\[3\]
*140 ANTENNA_gf180_sram_8x1024_din0\[4\]
*141 ANTENNA_gf180_sram_8x1024_din0\[5\]
*142 ANTENNA_gf180_sram_8x1024_din0\[6\]
*143 ANTENNA_gf180_sram_8x1024_din0\[7\]
*144 ANTENNA_gf180_sram_8x1024_dout0\[0\]
*145 ANTENNA_gf180_sram_8x1024_dout0\[1\]
*146 ANTENNA_gf180_sram_8x1024_dout0\[2\]
*147 ANTENNA_gf180_sram_8x1024_dout0\[3\]
*148 ANTENNA_gf180_sram_8x1024_dout0\[4\]
*149 ANTENNA_gf180_sram_8x1024_dout0\[5\]
*150 ANTENNA_gf180_sram_8x1024_dout0\[6\]
*151 ANTENNA_gf180_sram_8x1024_dout0\[7\]
*152 ANTENNA_gf180_sram_8x1024_web0
*153 ANTENNA_input10_I
*154 ANTENNA_input11_I
*155 ANTENNA_input12_I
*156 ANTENNA_input13_I
*157 ANTENNA_input14_I
*158 ANTENNA_input15_I
*159 ANTENNA_input16_I
*160 ANTENNA_input17_I
*161 ANTENNA_input18_I
*162 ANTENNA_input19_I
*163 ANTENNA_input1_I
*164 ANTENNA_input20_I
*165 ANTENNA_input21_I
*166 ANTENNA_input2_I
*167 ANTENNA_input3_I
*168 ANTENNA_input4_I
*169 ANTENNA_input5_I
*170 ANTENNA_input6_I
*171 ANTENNA_input7_I
*172 ANTENNA_input8_I
*173 ANTENNA_input9_I
*174 ANTENNA_output22_I
*175 ANTENNA_output23_I
*176 ANTENNA_output24_I
*177 ANTENNA_output25_I
*178 ANTENNA_output26_I
*179 ANTENNA_output27_I
*180 ANTENNA_output28_I
*181 ANTENNA_output29_I
*182 FILLER_0_0_1022
*183 FILLER_0_0_104
*184 FILLER_0_0_1056
*185 FILLER_0_0_1090
*186 FILLER_0_0_1124
*187 FILLER_0_0_1158
*188 FILLER_0_0_1192
*189 FILLER_0_0_1226
*190 FILLER_0_0_1260
*191 FILLER_0_0_1294
*192 FILLER_0_0_1328
*193 FILLER_0_0_1362
*194 FILLER_0_0_138
*195 FILLER_0_0_1396
*196 FILLER_0_0_1430
*197 FILLER_0_0_1464
*198 FILLER_0_0_1498
*199 FILLER_0_0_1514
*200 FILLER_0_0_1518
*201 FILLER_0_0_1523
*202 FILLER_0_0_1527
*203 FILLER_0_0_1529
*204 FILLER_0_0_1532
*205 FILLER_0_0_1566
*206 FILLER_0_0_1600
*207 FILLER_0_0_1634
*208 FILLER_0_0_1668
*209 FILLER_0_0_1702
*210 FILLER_0_0_172
*211 FILLER_0_0_1736
*212 FILLER_0_0_1770
*213 FILLER_0_0_1804
*214 FILLER_0_0_1812
*215 FILLER_0_0_206
*216 FILLER_0_0_22
*217 FILLER_0_0_240
*218 FILLER_0_0_274
*219 FILLER_0_0_290
*220 FILLER_0_0_294
*221 FILLER_0_0_299
*222 FILLER_0_0_30
*223 FILLER_0_0_303
*224 FILLER_0_0_305
*225 FILLER_0_0_308
*226 FILLER_0_0_342
*227 FILLER_0_0_36
*228 FILLER_0_0_376
*229 FILLER_0_0_410
*230 FILLER_0_0_444
*231 FILLER_0_0_478
*232 FILLER_0_0_512
*233 FILLER_0_0_546
*234 FILLER_0_0_580
*235 FILLER_0_0_6
*236 FILLER_0_0_614
*237 FILLER_0_0_648
*238 FILLER_0_0_682
*239 FILLER_0_0_70
*240 FILLER_0_0_716
*241 FILLER_0_0_750
*242 FILLER_0_0_784
*243 FILLER_0_0_818
*244 FILLER_0_0_852
*245 FILLER_0_0_886
*246 FILLER_0_0_902
*247 FILLER_0_0_906
*248 FILLER_0_0_911
*249 FILLER_0_0_915
*250 FILLER_0_0_917
*251 FILLER_0_0_920
*252 FILLER_0_0_954
*253 FILLER_0_0_988
*254 FILLER_0_100_101
*255 FILLER_0_100_107
*256 FILLER_0_100_139
*257 FILLER_0_100_143
*258 FILLER_0_100_145
*259 FILLER_0_100_1671
*260 FILLER_0_100_1703
*261 FILLER_0_100_1706
*262 FILLER_0_100_1770
*263 FILLER_0_100_1776
*264 FILLER_0_100_1808
*265 FILLER_0_100_1812
*266 FILLER_0_100_22
*267 FILLER_0_100_30
*268 FILLER_0_100_34
*269 FILLER_0_100_37
*270 FILLER_0_100_6
*271 FILLER_0_101_136
*272 FILLER_0_101_142
*273 FILLER_0_101_1671
*274 FILLER_0_101_1735
*275 FILLER_0_101_1741
*276 FILLER_0_101_1805
*277 FILLER_0_101_1811
*278 FILLER_0_101_1813
*279 FILLER_0_101_2
*280 FILLER_0_101_66
*281 FILLER_0_101_72
*282 FILLER_0_102_101
*283 FILLER_0_102_107
*284 FILLER_0_102_139
*285 FILLER_0_102_143
*286 FILLER_0_102_145
*287 FILLER_0_102_1671
*288 FILLER_0_102_1703
*289 FILLER_0_102_1706
*290 FILLER_0_102_1770
*291 FILLER_0_102_1776
*292 FILLER_0_102_1808
*293 FILLER_0_102_1812
*294 FILLER_0_102_2
*295 FILLER_0_102_34
*296 FILLER_0_102_37
*297 FILLER_0_103_136
*298 FILLER_0_103_142
*299 FILLER_0_103_1671
*300 FILLER_0_103_1735
*301 FILLER_0_103_1741
*302 FILLER_0_103_1805
*303 FILLER_0_103_1811
*304 FILLER_0_103_1813
*305 FILLER_0_103_2
*306 FILLER_0_103_66
*307 FILLER_0_103_72
*308 FILLER_0_104_101
*309 FILLER_0_104_107
*310 FILLER_0_104_139
*311 FILLER_0_104_143
*312 FILLER_0_104_145
*313 FILLER_0_104_1671
*314 FILLER_0_104_1703
*315 FILLER_0_104_1706
*316 FILLER_0_104_1770
*317 FILLER_0_104_1776
*318 FILLER_0_104_1808
*319 FILLER_0_104_1812
*320 FILLER_0_104_2
*321 FILLER_0_104_34
*322 FILLER_0_104_37
*323 FILLER_0_105_136
*324 FILLER_0_105_142
*325 FILLER_0_105_1671
*326 FILLER_0_105_1735
*327 FILLER_0_105_1741
*328 FILLER_0_105_1805
*329 FILLER_0_105_1811
*330 FILLER_0_105_1813
*331 FILLER_0_105_6
*332 FILLER_0_105_72
*333 FILLER_0_106_101
*334 FILLER_0_106_107
*335 FILLER_0_106_139
*336 FILLER_0_106_143
*337 FILLER_0_106_145
*338 FILLER_0_106_1671
*339 FILLER_0_106_1703
*340 FILLER_0_106_1706
*341 FILLER_0_106_1770
*342 FILLER_0_106_1776
*343 FILLER_0_106_1808
*344 FILLER_0_106_1812
*345 FILLER_0_106_2
*346 FILLER_0_106_34
*347 FILLER_0_106_37
*348 FILLER_0_107_136
*349 FILLER_0_107_142
*350 FILLER_0_107_1671
*351 FILLER_0_107_1735
*352 FILLER_0_107_1741
*353 FILLER_0_107_1805
*354 FILLER_0_107_1811
*355 FILLER_0_107_1813
*356 FILLER_0_107_2
*357 FILLER_0_107_66
*358 FILLER_0_107_72
*359 FILLER_0_108_101
*360 FILLER_0_108_107
*361 FILLER_0_108_139
*362 FILLER_0_108_143
*363 FILLER_0_108_145
*364 FILLER_0_108_1671
*365 FILLER_0_108_1703
*366 FILLER_0_108_1706
*367 FILLER_0_108_1770
*368 FILLER_0_108_1776
*369 FILLER_0_108_1808
*370 FILLER_0_108_1812
*371 FILLER_0_108_2
*372 FILLER_0_108_34
*373 FILLER_0_108_37
*374 FILLER_0_109_136
*375 FILLER_0_109_142
*376 FILLER_0_109_1671
*377 FILLER_0_109_1735
*378 FILLER_0_109_1741
*379 FILLER_0_109_1805
*380 FILLER_0_109_1811
*381 FILLER_0_109_1813
*382 FILLER_0_109_2
*383 FILLER_0_109_66
*384 FILLER_0_109_72
*385 FILLER_0_10_101
*386 FILLER_0_10_1011
*387 FILLER_0_10_1017
*388 FILLER_0_10_107
*389 FILLER_0_10_1081
*390 FILLER_0_10_1087
*391 FILLER_0_10_1151
*392 FILLER_0_10_1157
*393 FILLER_0_10_1221
*394 FILLER_0_10_1227
*395 FILLER_0_10_1291
*396 FILLER_0_10_1297
*397 FILLER_0_10_1361
*398 FILLER_0_10_1367
*399 FILLER_0_10_1431
*400 FILLER_0_10_1437
*401 FILLER_0_10_1501
*402 FILLER_0_10_1507
*403 FILLER_0_10_1571
*404 FILLER_0_10_1577
*405 FILLER_0_10_1641
*406 FILLER_0_10_1647
*407 FILLER_0_10_171
*408 FILLER_0_10_1711
*409 FILLER_0_10_1717
*410 FILLER_0_10_177
*411 FILLER_0_10_1781
*412 FILLER_0_10_1787
*413 FILLER_0_10_1803
*414 FILLER_0_10_1811
*415 FILLER_0_10_1813
*416 FILLER_0_10_2
*417 FILLER_0_10_241
*418 FILLER_0_10_247
*419 FILLER_0_10_311
*420 FILLER_0_10_317
*421 FILLER_0_10_34
*422 FILLER_0_10_37
*423 FILLER_0_10_381
*424 FILLER_0_10_387
*425 FILLER_0_10_451
*426 FILLER_0_10_457
*427 FILLER_0_10_521
*428 FILLER_0_10_527
*429 FILLER_0_10_591
*430 FILLER_0_10_597
*431 FILLER_0_10_661
*432 FILLER_0_10_667
*433 FILLER_0_10_731
*434 FILLER_0_10_737
*435 FILLER_0_10_801
*436 FILLER_0_10_807
*437 FILLER_0_10_871
*438 FILLER_0_10_877
*439 FILLER_0_10_941
*440 FILLER_0_10_947
*441 FILLER_0_110_101
*442 FILLER_0_110_107
*443 FILLER_0_110_12
*444 FILLER_0_110_139
*445 FILLER_0_110_143
*446 FILLER_0_110_145
*447 FILLER_0_110_1671
*448 FILLER_0_110_1703
*449 FILLER_0_110_1706
*450 FILLER_0_110_1770
*451 FILLER_0_110_1776
*452 FILLER_0_110_1808
*453 FILLER_0_110_1812
*454 FILLER_0_110_28
*455 FILLER_0_110_32
*456 FILLER_0_110_34
*457 FILLER_0_110_37
*458 FILLER_0_110_8
*459 FILLER_0_111_136
*460 FILLER_0_111_142
*461 FILLER_0_111_1671
*462 FILLER_0_111_1735
*463 FILLER_0_111_1741
*464 FILLER_0_111_1805
*465 FILLER_0_111_1811
*466 FILLER_0_111_1813
*467 FILLER_0_111_2
*468 FILLER_0_111_66
*469 FILLER_0_111_72
*470 FILLER_0_112_101
*471 FILLER_0_112_107
*472 FILLER_0_112_139
*473 FILLER_0_112_143
*474 FILLER_0_112_145
*475 FILLER_0_112_1671
*476 FILLER_0_112_1703
*477 FILLER_0_112_1706
*478 FILLER_0_112_1770
*479 FILLER_0_112_1776
*480 FILLER_0_112_1808
*481 FILLER_0_112_1812
*482 FILLER_0_112_2
*483 FILLER_0_112_34
*484 FILLER_0_112_37
*485 FILLER_0_113_136
*486 FILLER_0_113_142
*487 FILLER_0_113_1671
*488 FILLER_0_113_1735
*489 FILLER_0_113_1741
*490 FILLER_0_113_1805
*491 FILLER_0_113_1811
*492 FILLER_0_113_1813
*493 FILLER_0_113_2
*494 FILLER_0_113_66
*495 FILLER_0_113_72
*496 FILLER_0_114_101
*497 FILLER_0_114_107
*498 FILLER_0_114_139
*499 FILLER_0_114_143
*500 FILLER_0_114_145
*501 FILLER_0_114_1671
*502 FILLER_0_114_1703
*503 FILLER_0_114_1706
*504 FILLER_0_114_1770
*505 FILLER_0_114_1776
*506 FILLER_0_114_1808
*507 FILLER_0_114_1811
*508 FILLER_0_114_1813
*509 FILLER_0_114_2
*510 FILLER_0_114_34
*511 FILLER_0_114_37
*512 FILLER_0_115_136
*513 FILLER_0_115_142
*514 FILLER_0_115_1671
*515 FILLER_0_115_1735
*516 FILLER_0_115_1741
*517 FILLER_0_115_1773
*518 FILLER_0_115_1781
*519 FILLER_0_115_1811
*520 FILLER_0_115_1813
*521 FILLER_0_115_6
*522 FILLER_0_115_72
*523 FILLER_0_116_101
*524 FILLER_0_116_107
*525 FILLER_0_116_139
*526 FILLER_0_116_143
*527 FILLER_0_116_145
*528 FILLER_0_116_1671
*529 FILLER_0_116_1703
*530 FILLER_0_116_1706
*531 FILLER_0_116_1770
*532 FILLER_0_116_1776
*533 FILLER_0_116_1808
*534 FILLER_0_116_1812
*535 FILLER_0_116_2
*536 FILLER_0_116_34
*537 FILLER_0_116_37
*538 FILLER_0_117_136
*539 FILLER_0_117_142
*540 FILLER_0_117_1671
*541 FILLER_0_117_1735
*542 FILLER_0_117_1741
*543 FILLER_0_117_1805
*544 FILLER_0_117_1811
*545 FILLER_0_117_1813
*546 FILLER_0_117_2
*547 FILLER_0_117_66
*548 FILLER_0_117_72
*549 FILLER_0_118_101
*550 FILLER_0_118_107
*551 FILLER_0_118_139
*552 FILLER_0_118_143
*553 FILLER_0_118_145
*554 FILLER_0_118_1671
*555 FILLER_0_118_1703
*556 FILLER_0_118_1706
*557 FILLER_0_118_1770
*558 FILLER_0_118_1776
*559 FILLER_0_118_1808
*560 FILLER_0_118_1812
*561 FILLER_0_118_2
*562 FILLER_0_118_34
*563 FILLER_0_118_37
*564 FILLER_0_119_136
*565 FILLER_0_119_142
*566 FILLER_0_119_1671
*567 FILLER_0_119_1735
*568 FILLER_0_119_1741
*569 FILLER_0_119_1805
*570 FILLER_0_119_1811
*571 FILLER_0_119_1813
*572 FILLER_0_119_2
*573 FILLER_0_119_66
*574 FILLER_0_119_72
*575 FILLER_0_11_1046
*576 FILLER_0_11_1052
*577 FILLER_0_11_1116
*578 FILLER_0_11_1122
*579 FILLER_0_11_1186
*580 FILLER_0_11_1192
*581 FILLER_0_11_1256
*582 FILLER_0_11_1262
*583 FILLER_0_11_1326
*584 FILLER_0_11_1332
*585 FILLER_0_11_136
*586 FILLER_0_11_1396
*587 FILLER_0_11_1402
*588 FILLER_0_11_142
*589 FILLER_0_11_1466
*590 FILLER_0_11_1472
*591 FILLER_0_11_1536
*592 FILLER_0_11_1542
*593 FILLER_0_11_1606
*594 FILLER_0_11_1612
*595 FILLER_0_11_1676
*596 FILLER_0_11_1682
*597 FILLER_0_11_1746
*598 FILLER_0_11_1752
*599 FILLER_0_11_1784
*600 FILLER_0_11_1800
*601 FILLER_0_11_1808
*602 FILLER_0_11_1812
*603 FILLER_0_11_2
*604 FILLER_0_11_206
*605 FILLER_0_11_212
*606 FILLER_0_11_276
*607 FILLER_0_11_282
*608 FILLER_0_11_346
*609 FILLER_0_11_352
*610 FILLER_0_11_416
*611 FILLER_0_11_422
*612 FILLER_0_11_486
*613 FILLER_0_11_492
*614 FILLER_0_11_556
*615 FILLER_0_11_562
*616 FILLER_0_11_626
*617 FILLER_0_11_632
*618 FILLER_0_11_66
*619 FILLER_0_11_696
*620 FILLER_0_11_702
*621 FILLER_0_11_72
*622 FILLER_0_11_766
*623 FILLER_0_11_772
*624 FILLER_0_11_836
*625 FILLER_0_11_842
*626 FILLER_0_11_906
*627 FILLER_0_11_912
*628 FILLER_0_11_976
*629 FILLER_0_11_982
*630 FILLER_0_120_101
*631 FILLER_0_120_107
*632 FILLER_0_120_139
*633 FILLER_0_120_143
*634 FILLER_0_120_145
*635 FILLER_0_120_1671
*636 FILLER_0_120_1703
*637 FILLER_0_120_1706
*638 FILLER_0_120_1770
*639 FILLER_0_120_1776
*640 FILLER_0_120_1808
*641 FILLER_0_120_1812
*642 FILLER_0_120_22
*643 FILLER_0_120_30
*644 FILLER_0_120_34
*645 FILLER_0_120_37
*646 FILLER_0_120_6
*647 FILLER_0_121_136
*648 FILLER_0_121_142
*649 FILLER_0_121_1671
*650 FILLER_0_121_1735
*651 FILLER_0_121_1741
*652 FILLER_0_121_1805
*653 FILLER_0_121_1811
*654 FILLER_0_121_1813
*655 FILLER_0_121_2
*656 FILLER_0_121_66
*657 FILLER_0_121_72
*658 FILLER_0_122_101
*659 FILLER_0_122_107
*660 FILLER_0_122_139
*661 FILLER_0_122_143
*662 FILLER_0_122_145
*663 FILLER_0_122_1671
*664 FILLER_0_122_1703
*665 FILLER_0_122_1706
*666 FILLER_0_122_1770
*667 FILLER_0_122_1776
*668 FILLER_0_122_1808
*669 FILLER_0_122_1812
*670 FILLER_0_122_2
*671 FILLER_0_122_34
*672 FILLER_0_122_37
*673 FILLER_0_123_136
*674 FILLER_0_123_142
*675 FILLER_0_123_1671
*676 FILLER_0_123_1735
*677 FILLER_0_123_1741
*678 FILLER_0_123_1805
*679 FILLER_0_123_1811
*680 FILLER_0_123_1813
*681 FILLER_0_123_2
*682 FILLER_0_123_66
*683 FILLER_0_123_72
*684 FILLER_0_124_101
*685 FILLER_0_124_107
*686 FILLER_0_124_139
*687 FILLER_0_124_143
*688 FILLER_0_124_145
*689 FILLER_0_124_1671
*690 FILLER_0_124_1703
*691 FILLER_0_124_1706
*692 FILLER_0_124_1770
*693 FILLER_0_124_1776
*694 FILLER_0_124_1808
*695 FILLER_0_124_1812
*696 FILLER_0_124_2
*697 FILLER_0_124_34
*698 FILLER_0_124_37
*699 FILLER_0_125_12
*700 FILLER_0_125_136
*701 FILLER_0_125_142
*702 FILLER_0_125_1671
*703 FILLER_0_125_1735
*704 FILLER_0_125_1741
*705 FILLER_0_125_1805
*706 FILLER_0_125_1811
*707 FILLER_0_125_1813
*708 FILLER_0_125_44
*709 FILLER_0_125_60
*710 FILLER_0_125_68
*711 FILLER_0_125_72
*712 FILLER_0_125_8
*713 FILLER_0_126_101
*714 FILLER_0_126_107
*715 FILLER_0_126_139
*716 FILLER_0_126_143
*717 FILLER_0_126_145
*718 FILLER_0_126_1671
*719 FILLER_0_126_1703
*720 FILLER_0_126_1706
*721 FILLER_0_126_1770
*722 FILLER_0_126_1776
*723 FILLER_0_126_1808
*724 FILLER_0_126_2
*725 FILLER_0_126_34
*726 FILLER_0_126_37
*727 FILLER_0_127_136
*728 FILLER_0_127_142
*729 FILLER_0_127_1671
*730 FILLER_0_127_1735
*731 FILLER_0_127_1741
*732 FILLER_0_127_1805
*733 FILLER_0_127_1811
*734 FILLER_0_127_1813
*735 FILLER_0_127_2
*736 FILLER_0_127_66
*737 FILLER_0_127_72
*738 FILLER_0_128_101
*739 FILLER_0_128_107
*740 FILLER_0_128_139
*741 FILLER_0_128_143
*742 FILLER_0_128_145
*743 FILLER_0_128_1671
*744 FILLER_0_128_1703
*745 FILLER_0_128_1706
*746 FILLER_0_128_1770
*747 FILLER_0_128_1776
*748 FILLER_0_128_1808
*749 FILLER_0_128_1812
*750 FILLER_0_128_2
*751 FILLER_0_128_34
*752 FILLER_0_128_37
*753 FILLER_0_129_136
*754 FILLER_0_129_142
*755 FILLER_0_129_1671
*756 FILLER_0_129_1735
*757 FILLER_0_129_1741
*758 FILLER_0_129_1805
*759 FILLER_0_129_1811
*760 FILLER_0_129_1813
*761 FILLER_0_129_2
*762 FILLER_0_129_66
*763 FILLER_0_129_72
*764 FILLER_0_12_101
*765 FILLER_0_12_1011
*766 FILLER_0_12_1017
*767 FILLER_0_12_107
*768 FILLER_0_12_1081
*769 FILLER_0_12_1087
*770 FILLER_0_12_1151
*771 FILLER_0_12_1157
*772 FILLER_0_12_1221
*773 FILLER_0_12_1227
*774 FILLER_0_12_1291
*775 FILLER_0_12_1297
*776 FILLER_0_12_1361
*777 FILLER_0_12_1367
*778 FILLER_0_12_1431
*779 FILLER_0_12_1437
*780 FILLER_0_12_1501
*781 FILLER_0_12_1507
*782 FILLER_0_12_1571
*783 FILLER_0_12_1577
*784 FILLER_0_12_1641
*785 FILLER_0_12_1647
*786 FILLER_0_12_171
*787 FILLER_0_12_1711
*788 FILLER_0_12_1717
*789 FILLER_0_12_177
*790 FILLER_0_12_1781
*791 FILLER_0_12_1787
*792 FILLER_0_12_1803
*793 FILLER_0_12_1811
*794 FILLER_0_12_1813
*795 FILLER_0_12_2
*796 FILLER_0_12_241
*797 FILLER_0_12_247
*798 FILLER_0_12_311
*799 FILLER_0_12_317
*800 FILLER_0_12_34
*801 FILLER_0_12_37
*802 FILLER_0_12_381
*803 FILLER_0_12_387
*804 FILLER_0_12_451
*805 FILLER_0_12_457
*806 FILLER_0_12_521
*807 FILLER_0_12_527
*808 FILLER_0_12_591
*809 FILLER_0_12_597
*810 FILLER_0_12_661
*811 FILLER_0_12_667
*812 FILLER_0_12_731
*813 FILLER_0_12_737
*814 FILLER_0_12_801
*815 FILLER_0_12_807
*816 FILLER_0_12_871
*817 FILLER_0_12_877
*818 FILLER_0_12_941
*819 FILLER_0_12_947
*820 FILLER_0_130_101
*821 FILLER_0_130_107
*822 FILLER_0_130_139
*823 FILLER_0_130_143
*824 FILLER_0_130_145
*825 FILLER_0_130_1671
*826 FILLER_0_130_1703
*827 FILLER_0_130_1706
*828 FILLER_0_130_1770
*829 FILLER_0_130_1776
*830 FILLER_0_130_1808
*831 FILLER_0_130_1812
*832 FILLER_0_130_22
*833 FILLER_0_130_30
*834 FILLER_0_130_34
*835 FILLER_0_130_37
*836 FILLER_0_130_6
*837 FILLER_0_131_136
*838 FILLER_0_131_142
*839 FILLER_0_131_1671
*840 FILLER_0_131_1735
*841 FILLER_0_131_1741
*842 FILLER_0_131_1805
*843 FILLER_0_131_1811
*844 FILLER_0_131_1813
*845 FILLER_0_131_2
*846 FILLER_0_131_66
*847 FILLER_0_131_72
*848 FILLER_0_132_101
*849 FILLER_0_132_107
*850 FILLER_0_132_139
*851 FILLER_0_132_143
*852 FILLER_0_132_145
*853 FILLER_0_132_1671
*854 FILLER_0_132_1703
*855 FILLER_0_132_1706
*856 FILLER_0_132_1770
*857 FILLER_0_132_1776
*858 FILLER_0_132_1808
*859 FILLER_0_132_1812
*860 FILLER_0_132_2
*861 FILLER_0_132_34
*862 FILLER_0_132_37
*863 FILLER_0_133_136
*864 FILLER_0_133_142
*865 FILLER_0_133_1671
*866 FILLER_0_133_1735
*867 FILLER_0_133_1741
*868 FILLER_0_133_1805
*869 FILLER_0_133_1811
*870 FILLER_0_133_1813
*871 FILLER_0_133_2
*872 FILLER_0_133_66
*873 FILLER_0_133_72
*874 FILLER_0_134_101
*875 FILLER_0_134_107
*876 FILLER_0_134_139
*877 FILLER_0_134_143
*878 FILLER_0_134_145
*879 FILLER_0_134_1671
*880 FILLER_0_134_1703
*881 FILLER_0_134_1706
*882 FILLER_0_134_1770
*883 FILLER_0_134_1776
*884 FILLER_0_134_1808
*885 FILLER_0_134_1812
*886 FILLER_0_134_22
*887 FILLER_0_134_30
*888 FILLER_0_134_34
*889 FILLER_0_134_37
*890 FILLER_0_134_6
*891 FILLER_0_135_136
*892 FILLER_0_135_142
*893 FILLER_0_135_1671
*894 FILLER_0_135_1735
*895 FILLER_0_135_1741
*896 FILLER_0_135_1805
*897 FILLER_0_135_1811
*898 FILLER_0_135_1813
*899 FILLER_0_135_2
*900 FILLER_0_135_66
*901 FILLER_0_135_72
*902 FILLER_0_136_101
*903 FILLER_0_136_107
*904 FILLER_0_136_139
*905 FILLER_0_136_143
*906 FILLER_0_136_145
*907 FILLER_0_136_1671
*908 FILLER_0_136_1703
*909 FILLER_0_136_1706
*910 FILLER_0_136_1770
*911 FILLER_0_136_1776
*912 FILLER_0_136_1808
*913 FILLER_0_136_1812
*914 FILLER_0_136_2
*915 FILLER_0_136_34
*916 FILLER_0_136_37
*917 FILLER_0_137_136
*918 FILLER_0_137_142
*919 FILLER_0_137_1671
*920 FILLER_0_137_1735
*921 FILLER_0_137_1741
*922 FILLER_0_137_1805
*923 FILLER_0_137_1811
*924 FILLER_0_137_1813
*925 FILLER_0_137_2
*926 FILLER_0_137_66
*927 FILLER_0_137_72
*928 FILLER_0_138_101
*929 FILLER_0_138_107
*930 FILLER_0_138_139
*931 FILLER_0_138_143
*932 FILLER_0_138_145
*933 FILLER_0_138_1671
*934 FILLER_0_138_1703
*935 FILLER_0_138_1706
*936 FILLER_0_138_1770
*937 FILLER_0_138_1776
*938 FILLER_0_138_1808
*939 FILLER_0_138_1812
*940 FILLER_0_138_2
*941 FILLER_0_138_22
*942 FILLER_0_138_30
*943 FILLER_0_138_34
*944 FILLER_0_138_37
*945 FILLER_0_138_6
*946 FILLER_0_139_136
*947 FILLER_0_139_142
*948 FILLER_0_139_16
*949 FILLER_0_139_1671
*950 FILLER_0_139_1735
*951 FILLER_0_139_1741
*952 FILLER_0_139_1805
*953 FILLER_0_139_1811
*954 FILLER_0_139_1813
*955 FILLER_0_139_48
*956 FILLER_0_139_64
*957 FILLER_0_139_68
*958 FILLER_0_139_72
*959 FILLER_0_13_1046
*960 FILLER_0_13_1052
*961 FILLER_0_13_1116
*962 FILLER_0_13_1122
*963 FILLER_0_13_1186
*964 FILLER_0_13_1192
*965 FILLER_0_13_1256
*966 FILLER_0_13_1262
*967 FILLER_0_13_1326
*968 FILLER_0_13_1332
*969 FILLER_0_13_136
*970 FILLER_0_13_1396
*971 FILLER_0_13_1402
*972 FILLER_0_13_142
*973 FILLER_0_13_1466
*974 FILLER_0_13_1472
*975 FILLER_0_13_1536
*976 FILLER_0_13_1542
*977 FILLER_0_13_1606
*978 FILLER_0_13_1612
*979 FILLER_0_13_1676
*980 FILLER_0_13_1682
*981 FILLER_0_13_1746
*982 FILLER_0_13_1752
*983 FILLER_0_13_1784
*984 FILLER_0_13_1800
*985 FILLER_0_13_1808
*986 FILLER_0_13_1812
*987 FILLER_0_13_206
*988 FILLER_0_13_212
*989 FILLER_0_13_276
*990 FILLER_0_13_282
*991 FILLER_0_13_346
*992 FILLER_0_13_352
*993 FILLER_0_13_416
*994 FILLER_0_13_422
*995 FILLER_0_13_486
*996 FILLER_0_13_492
*997 FILLER_0_13_556
*998 FILLER_0_13_562
*999 FILLER_0_13_6
*1000 FILLER_0_13_626
*1001 FILLER_0_13_632
*1002 FILLER_0_13_696
*1003 FILLER_0_13_702
*1004 FILLER_0_13_72
*1005 FILLER_0_13_766
*1006 FILLER_0_13_772
*1007 FILLER_0_13_836
*1008 FILLER_0_13_842
*1009 FILLER_0_13_906
*1010 FILLER_0_13_912
*1011 FILLER_0_13_976
*1012 FILLER_0_13_982
*1013 FILLER_0_140_101
*1014 FILLER_0_140_107
*1015 FILLER_0_140_139
*1016 FILLER_0_140_143
*1017 FILLER_0_140_145
*1018 FILLER_0_140_1671
*1019 FILLER_0_140_1703
*1020 FILLER_0_140_1706
*1021 FILLER_0_140_1770
*1022 FILLER_0_140_1776
*1023 FILLER_0_140_1808
*1024 FILLER_0_140_1812
*1025 FILLER_0_140_2
*1026 FILLER_0_140_34
*1027 FILLER_0_140_37
*1028 FILLER_0_141_136
*1029 FILLER_0_141_142
*1030 FILLER_0_141_1671
*1031 FILLER_0_141_1735
*1032 FILLER_0_141_1741
*1033 FILLER_0_141_1805
*1034 FILLER_0_141_1811
*1035 FILLER_0_141_1813
*1036 FILLER_0_141_2
*1037 FILLER_0_141_66
*1038 FILLER_0_141_72
*1039 FILLER_0_142_101
*1040 FILLER_0_142_107
*1041 FILLER_0_142_139
*1042 FILLER_0_142_143
*1043 FILLER_0_142_145
*1044 FILLER_0_142_1671
*1045 FILLER_0_142_1703
*1046 FILLER_0_142_1706
*1047 FILLER_0_142_1770
*1048 FILLER_0_142_1776
*1049 FILLER_0_142_1808
*1050 FILLER_0_142_1812
*1051 FILLER_0_142_2
*1052 FILLER_0_142_34
*1053 FILLER_0_142_37
*1054 FILLER_0_143_136
*1055 FILLER_0_143_142
*1056 FILLER_0_143_1671
*1057 FILLER_0_143_1735
*1058 FILLER_0_143_1741
*1059 FILLER_0_143_1805
*1060 FILLER_0_143_1811
*1061 FILLER_0_143_1813
*1062 FILLER_0_143_2
*1063 FILLER_0_143_66
*1064 FILLER_0_143_72
*1065 FILLER_0_144_101
*1066 FILLER_0_144_107
*1067 FILLER_0_144_139
*1068 FILLER_0_144_143
*1069 FILLER_0_144_145
*1070 FILLER_0_144_1671
*1071 FILLER_0_144_1703
*1072 FILLER_0_144_1706
*1073 FILLER_0_144_1770
*1074 FILLER_0_144_1776
*1075 FILLER_0_144_1808
*1076 FILLER_0_144_1812
*1077 FILLER_0_144_22
*1078 FILLER_0_144_30
*1079 FILLER_0_144_34
*1080 FILLER_0_144_37
*1081 FILLER_0_144_6
*1082 FILLER_0_145_136
*1083 FILLER_0_145_142
*1084 FILLER_0_145_1671
*1085 FILLER_0_145_1735
*1086 FILLER_0_145_1741
*1087 FILLER_0_145_1805
*1088 FILLER_0_145_1811
*1089 FILLER_0_145_1813
*1090 FILLER_0_145_2
*1091 FILLER_0_145_66
*1092 FILLER_0_145_72
*1093 FILLER_0_146_101
*1094 FILLER_0_146_107
*1095 FILLER_0_146_139
*1096 FILLER_0_146_143
*1097 FILLER_0_146_145
*1098 FILLER_0_146_1671
*1099 FILLER_0_146_1703
*1100 FILLER_0_146_1706
*1101 FILLER_0_146_1770
*1102 FILLER_0_146_1776
*1103 FILLER_0_146_1808
*1104 FILLER_0_146_1812
*1105 FILLER_0_146_2
*1106 FILLER_0_146_34
*1107 FILLER_0_146_37
*1108 FILLER_0_147_136
*1109 FILLER_0_147_142
*1110 FILLER_0_147_1671
*1111 FILLER_0_147_1735
*1112 FILLER_0_147_1741
*1113 FILLER_0_147_1805
*1114 FILLER_0_147_1811
*1115 FILLER_0_147_1813
*1116 FILLER_0_147_2
*1117 FILLER_0_147_66
*1118 FILLER_0_147_72
*1119 FILLER_0_148_101
*1120 FILLER_0_148_107
*1121 FILLER_0_148_139
*1122 FILLER_0_148_143
*1123 FILLER_0_148_145
*1124 FILLER_0_148_1671
*1125 FILLER_0_148_1703
*1126 FILLER_0_148_1706
*1127 FILLER_0_148_1770
*1128 FILLER_0_148_1776
*1129 FILLER_0_148_1784
*1130 FILLER_0_148_2
*1131 FILLER_0_148_34
*1132 FILLER_0_148_37
*1133 FILLER_0_149_136
*1134 FILLER_0_149_142
*1135 FILLER_0_149_1671
*1136 FILLER_0_149_1735
*1137 FILLER_0_149_1741
*1138 FILLER_0_149_1805
*1139 FILLER_0_149_1811
*1140 FILLER_0_149_1813
*1141 FILLER_0_149_6
*1142 FILLER_0_149_72
*1143 FILLER_0_14_101
*1144 FILLER_0_14_1011
*1145 FILLER_0_14_1017
*1146 FILLER_0_14_107
*1147 FILLER_0_14_1081
*1148 FILLER_0_14_1087
*1149 FILLER_0_14_1151
*1150 FILLER_0_14_1157
*1151 FILLER_0_14_1221
*1152 FILLER_0_14_1227
*1153 FILLER_0_14_1291
*1154 FILLER_0_14_1297
*1155 FILLER_0_14_1361
*1156 FILLER_0_14_1367
*1157 FILLER_0_14_1431
*1158 FILLER_0_14_1437
*1159 FILLER_0_14_1501
*1160 FILLER_0_14_1507
*1161 FILLER_0_14_1571
*1162 FILLER_0_14_1577
*1163 FILLER_0_14_1641
*1164 FILLER_0_14_1647
*1165 FILLER_0_14_171
*1166 FILLER_0_14_1711
*1167 FILLER_0_14_1717
*1168 FILLER_0_14_177
*1169 FILLER_0_14_1781
*1170 FILLER_0_14_1787
*1171 FILLER_0_14_2
*1172 FILLER_0_14_241
*1173 FILLER_0_14_247
*1174 FILLER_0_14_311
*1175 FILLER_0_14_317
*1176 FILLER_0_14_34
*1177 FILLER_0_14_37
*1178 FILLER_0_14_381
*1179 FILLER_0_14_387
*1180 FILLER_0_14_451
*1181 FILLER_0_14_457
*1182 FILLER_0_14_521
*1183 FILLER_0_14_527
*1184 FILLER_0_14_591
*1185 FILLER_0_14_597
*1186 FILLER_0_14_661
*1187 FILLER_0_14_667
*1188 FILLER_0_14_731
*1189 FILLER_0_14_737
*1190 FILLER_0_14_801
*1191 FILLER_0_14_807
*1192 FILLER_0_14_871
*1193 FILLER_0_14_877
*1194 FILLER_0_14_941
*1195 FILLER_0_14_947
*1196 FILLER_0_150_101
*1197 FILLER_0_150_107
*1198 FILLER_0_150_139
*1199 FILLER_0_150_143
*1200 FILLER_0_150_145
*1201 FILLER_0_150_1671
*1202 FILLER_0_150_1703
*1203 FILLER_0_150_1706
*1204 FILLER_0_150_1770
*1205 FILLER_0_150_1776
*1206 FILLER_0_150_1808
*1207 FILLER_0_150_1812
*1208 FILLER_0_150_2
*1209 FILLER_0_150_34
*1210 FILLER_0_150_37
*1211 FILLER_0_151_136
*1212 FILLER_0_151_142
*1213 FILLER_0_151_1671
*1214 FILLER_0_151_1735
*1215 FILLER_0_151_1741
*1216 FILLER_0_151_1805
*1217 FILLER_0_151_1811
*1218 FILLER_0_151_1813
*1219 FILLER_0_151_2
*1220 FILLER_0_151_66
*1221 FILLER_0_151_72
*1222 FILLER_0_152_101
*1223 FILLER_0_152_107
*1224 FILLER_0_152_139
*1225 FILLER_0_152_143
*1226 FILLER_0_152_145
*1227 FILLER_0_152_1671
*1228 FILLER_0_152_1703
*1229 FILLER_0_152_1706
*1230 FILLER_0_152_1770
*1231 FILLER_0_152_1776
*1232 FILLER_0_152_1808
*1233 FILLER_0_152_1812
*1234 FILLER_0_152_2
*1235 FILLER_0_152_34
*1236 FILLER_0_152_37
*1237 FILLER_0_153_136
*1238 FILLER_0_153_142
*1239 FILLER_0_153_1671
*1240 FILLER_0_153_1735
*1241 FILLER_0_153_1741
*1242 FILLER_0_153_1805
*1243 FILLER_0_153_1811
*1244 FILLER_0_153_1813
*1245 FILLER_0_153_2
*1246 FILLER_0_153_6
*1247 FILLER_0_153_72
*1248 FILLER_0_154_101
*1249 FILLER_0_154_107
*1250 FILLER_0_154_139
*1251 FILLER_0_154_143
*1252 FILLER_0_154_145
*1253 FILLER_0_154_16
*1254 FILLER_0_154_1671
*1255 FILLER_0_154_1703
*1256 FILLER_0_154_1706
*1257 FILLER_0_154_1770
*1258 FILLER_0_154_1776
*1259 FILLER_0_154_1808
*1260 FILLER_0_154_1812
*1261 FILLER_0_154_32
*1262 FILLER_0_154_34
*1263 FILLER_0_154_37
*1264 FILLER_0_155_136
*1265 FILLER_0_155_142
*1266 FILLER_0_155_1671
*1267 FILLER_0_155_1735
*1268 FILLER_0_155_1741
*1269 FILLER_0_155_1805
*1270 FILLER_0_155_1811
*1271 FILLER_0_155_1813
*1272 FILLER_0_155_2
*1273 FILLER_0_155_66
*1274 FILLER_0_155_72
*1275 FILLER_0_156_101
*1276 FILLER_0_156_107
*1277 FILLER_0_156_139
*1278 FILLER_0_156_143
*1279 FILLER_0_156_145
*1280 FILLER_0_156_1671
*1281 FILLER_0_156_1703
*1282 FILLER_0_156_1706
*1283 FILLER_0_156_1770
*1284 FILLER_0_156_1776
*1285 FILLER_0_156_1808
*1286 FILLER_0_156_1812
*1287 FILLER_0_156_2
*1288 FILLER_0_156_34
*1289 FILLER_0_156_37
*1290 FILLER_0_157_136
*1291 FILLER_0_157_142
*1292 FILLER_0_157_1671
*1293 FILLER_0_157_1735
*1294 FILLER_0_157_1741
*1295 FILLER_0_157_1805
*1296 FILLER_0_157_1811
*1297 FILLER_0_157_1813
*1298 FILLER_0_157_2
*1299 FILLER_0_157_66
*1300 FILLER_0_157_72
*1301 FILLER_0_158_101
*1302 FILLER_0_158_107
*1303 FILLER_0_158_139
*1304 FILLER_0_158_143
*1305 FILLER_0_158_145
*1306 FILLER_0_158_1671
*1307 FILLER_0_158_1703
*1308 FILLER_0_158_1706
*1309 FILLER_0_158_1770
*1310 FILLER_0_158_1776
*1311 FILLER_0_158_1808
*1312 FILLER_0_158_1812
*1313 FILLER_0_158_2
*1314 FILLER_0_158_34
*1315 FILLER_0_158_37
*1316 FILLER_0_159_136
*1317 FILLER_0_159_142
*1318 FILLER_0_159_1671
*1319 FILLER_0_159_1735
*1320 FILLER_0_159_1741
*1321 FILLER_0_159_1811
*1322 FILLER_0_159_1813
*1323 FILLER_0_159_6
*1324 FILLER_0_159_72
*1325 FILLER_0_15_1046
*1326 FILLER_0_15_1052
*1327 FILLER_0_15_1116
*1328 FILLER_0_15_1122
*1329 FILLER_0_15_1186
*1330 FILLER_0_15_1192
*1331 FILLER_0_15_1256
*1332 FILLER_0_15_1262
*1333 FILLER_0_15_1326
*1334 FILLER_0_15_1332
*1335 FILLER_0_15_136
*1336 FILLER_0_15_1396
*1337 FILLER_0_15_1402
*1338 FILLER_0_15_142
*1339 FILLER_0_15_1466
*1340 FILLER_0_15_1472
*1341 FILLER_0_15_1536
*1342 FILLER_0_15_1542
*1343 FILLER_0_15_1606
*1344 FILLER_0_15_1612
*1345 FILLER_0_15_1676
*1346 FILLER_0_15_1682
*1347 FILLER_0_15_1746
*1348 FILLER_0_15_1752
*1349 FILLER_0_15_1784
*1350 FILLER_0_15_1800
*1351 FILLER_0_15_1808
*1352 FILLER_0_15_1812
*1353 FILLER_0_15_2
*1354 FILLER_0_15_206
*1355 FILLER_0_15_212
*1356 FILLER_0_15_276
*1357 FILLER_0_15_282
*1358 FILLER_0_15_346
*1359 FILLER_0_15_352
*1360 FILLER_0_15_416
*1361 FILLER_0_15_422
*1362 FILLER_0_15_486
*1363 FILLER_0_15_492
*1364 FILLER_0_15_556
*1365 FILLER_0_15_562
*1366 FILLER_0_15_626
*1367 FILLER_0_15_632
*1368 FILLER_0_15_66
*1369 FILLER_0_15_696
*1370 FILLER_0_15_702
*1371 FILLER_0_15_72
*1372 FILLER_0_15_766
*1373 FILLER_0_15_772
*1374 FILLER_0_15_836
*1375 FILLER_0_15_842